The : AT0
Long : AJ0
Road : NN1
Home : NN1
CIA : NP0
HQ : NN1
Langley : NP0
Sorge : NP0-NN1
had : VHD
never : AV0
been : VBN
to : PRP
Langley : NP0
before : AV0
. : PUN
It : PNP
was : VBD
not : XX0
something : PNI
a : AT0
Russian : NN1
expected : VVD
to : TO0
do : VDI
. : PUN
It : PNP
was : VBD
after : PRP
9 : CRD
a.m. : AV0
when : CJS-AVQ
Nowak : NP0
drove : VVD
him : PNP
through : PRP
the : AT0
gates : NN2
, : PUN
past : PRP
the : AT0
guards : NN2
, : PUN
and : CJC
into : PRP
the : AT0
vast : AJ0
underground : AJ0
car-park : NN1
. : PUN
‘ : PUQ
Why : AVQ
Langley : NP0
? : PUN
’ : PUQ
Sorge : NP0-NN1
had : VHD
asked : VVN
him : PNP
on : PRP
the : AT0
way : NN1
out : AVP
of : PRF
Washington : NP0
. : PUN
‘ : PUQ
They : PNP
want : VVB
to : TO0
show : VVI
you : PNP
that : CJT
they : PNP
trust : VVB
you : PNP
. : PUN
’ : PUQ
‘ : PUQ
I : PNP
do : VDB
n't : XX0
expect : VVI
I : PNP
'll : VM0
see : VVI
much : AV0
. : PUN
’ : PUQ
Nowak : NP0-NN1
laughed : VVD
. : PUN
‘ : PUQ
Damn : AV0
right : AJ0
. : PUN
We : PNP
park : VVB
in : PRP-AVP
the : AT0
underground : AJ0
car-park : NN1
, : PUN
catch : VVB
a : AT0
special : AJ0
lift : NN1
to : PRP
the : AT0
fifth : ORD
floor : NN1
and : CJC
walk : VVB-NN1
across : PRP
the : AT0
corridor : NN1
into : PRP
a : AT0
special : AJ0
conference : NN1
room : NN1
. : PUN
’ : PUQ
‘ : PUQ
That : DT0
's : VBZ
trust : NN1
? : PUN
’ : PUQ
‘ : PUQ
That : DT0
's : VBZ
trust : NN1
. : PUN
’ : PUQ
The : AT0
Executive : NN1-AJ0
Director : NN1
was : VBD
already : AV0
in : PRP
the : AT0
meeting : NN1
room : NN1
. : PUN
‘ : PUQ
Welcome : VVB-NN1
to : PRP
Langley : NP0
. : PUN
’ : PUQ
He : PNP
held : VVD
his : DPS
hand : NN1
out : AVP
in : PRP
welcome : NN1-AJ0
. : PUN
When : CJS
the : AT0
introductions : NN2
were : VBD
complete : AJ0
, : PUN
the : AT0
Exec : NP0-NN1
Director : NN1
, : PUN
the : AT0
DDA : NN1-NP0
, : PUN
the : AT0
DDI : NP0
, : PUN
Sorge : NP0-NN1
and : CJC
Nowak : NP0
settled : VVD
themselves : PNX
round : PRP-AVP
the : AT0
small : AJ0
conference : NN1
table : NN1
. : PUN
‘ : PUQ
We : PNP
have : VHB
a : AT0
new : AJ0
problem : NN1
, : PUN
’ : PUQ
kicked : VVD
off : AVP
the : AT0
Exec : NP0-NN1
Director : NN1
. : PUN
‘ : PUQ
The : AT0
English : AJ0-NN1
operative : NN1
who : PNQ
was : VBD
guarding : VVG-AJ0
Trimmler : NP0-NN1
has : VHZ
taken : VVN
off : AVP
. : PUN
He : PNP
's : VBZ
also : AV0
taken : VVN
an : AT0
agent : NN1
of : PRF
ours : PNP
with : PRP
him : PNP
. : PUN
As : PRP
hostage : NN1
. : PUN
A : AT0
woman : NN1
. : PUN
We : PNP
believe : VVB
they : PNP
're : VBB
still : AV0
in : PRP
New : NP0
Orleans : NP0
. : PUN
’ : PUQ
‘ : PUQ
Why : AVQ
? : PUN
’ : PUQ
asked : VVD
Sorge : NP0-NN1
, : PUN
concerned : AJ0
. : PUN
‘ : PUQ
I : PNP
do : VDB
n't : XX0
know : VVI
yet : AV0
. : PUN
What : DTQ
about : PRP
Goodenache : NP0-NN1
? : PUN
’ : PUQ
He : PNP
decided : VVD
to : TO0
turn : VVI
the : AT0
pressure : NN1
on : PRP
the : AT0
Russian : NN1
. : PUN
‘ : PUQ
He : PNP
caught : VVD
a : AT0
flight : NN1
to : PRP
Frankfurt : NP0
. : PUN
Then : AV0
he : PNP
hired : VVD
a : AT0
car : NN1
, : PUN
but : CJC
the : AT0
car : NN1
was : VBD
found : VVN
abandoned : VVN
on : PRP
the : AT0
outskirts : NN2
of : PRF
Frankfurt : NP0
. : PUN
We : PNP
are : VBB
trying : VVG
to : TO0
find : VVI
our : DPS
missing : AJ0
scientist : NN1
now : AV0
. : PUN
’ : PUQ
‘ : PUQ
Are : VBB
the : AT0
German : AJ0-NN1
authorities : NN2
involved : VVN-VVD
? : PUN
’ : PUQ
‘ : PUQ
No : ITJ
. : PUN
We : PNP
have : VHB
our : DPS
own : DT0
means : NN0
. : PUN
’ : PUQ
Sorge : NP0-NN1
saw : VVD
the : AT0
Exec : NP0-NN1
Director : NN1
look : VVB-NN1
up : AVP
, : PUN
his : DPS
eyebrows : NN2
raised : VVD-VVN
suddenly : AV0
. : PUN
‘ : PUQ
We : PNP
both : DT0
have : VHB
our : DPS
methods : NN2
. : PUN
Even : AV0
in : PRP
an : AT0
independent : AJ0
Germany : NP0
. : PUN
After : PRP
all : DT0
, : PUN
it : PNP
was : VBD
the : AT0
death : NN1
of : PRF
our : DPS
people : NN0
in : PRP
these : DT0
situations : NN2
that : CJT
has : VHZ
brought : VVN
us : PNP
together : AV0
. : PUN
’ : PUQ
The : AT0
Exec : NP0-NN1
Director : NN1
shrugged : VVD
. : PUN
Bastard : NN1
Russians : NN2
were : VBD
still : AV0
up : AVP
to : PRP
their : DPS
old : AJ0
tricks : NN2
. : PUN
He : PNP
ignored : VVD
the : AT0
pointed : AJ0
look : NN1-VVB
the : AT0
DDI : NP0
was : VBD
giving : VVG
him : PNP
. : PUN
‘ : PUQ
I : PNP
thought : VVD
it : PNP
best : AJS
if : CJS
the : AT0
Director : NN1
of : PRF
our : DPS
operations : NN2
in : PRP
New : NP0
Orleans : NP0
gave : VVD
you : PNP
a : AT0
run : NN1-VVB
down : AVP
of : PRF
what : DTQ
has : VHZ
taken : VVN
place : NN1
up : AVP
to : PRP
now : AV0
. : PUN
’ : PUQ
He : PNP
sat : VVD
back : AVP
and : CJC
let : VVB
the : AT0
DDA : NN1-NP0
give : VVI
a : AT0
full : AJ0
report : NN1
, : PUN
including : PRP
the : AT0
trip : NN1
to : PRP
the : AT0
voodoo : NN1
ceremony : NN1
and : CJC
all : DT0
that : CJT-DT0
followed : VVD
. : PUN
Sorge : NP0
did : VDD
n't : XX0
stir : VVI
, : PUN
even : AV0
when : CJS
they : PNP
mentioned : VVD
the : AT0
gruesome : AJ0
spectacle : NN1
of : PRF
Trimmler : NP0-NN1
's : POS
arms : NN2
folded : VVN
in : PRP
the : AT0
sign : NN1
of : PRF
a : AT0
swastika : NN1
. : PUN
‘ : PUQ
We : PNP
still : AV0
are : VBB
n't : XX0
convinced : AJ0
that : CJT
Trimmler : NP0-NN1
's : POS
death : NN1
has : VHZ
anything : PNI
to : TO0
do : VDI
with : PRP
the : AT0
death : NN1
of : PRF
our : DPS
agents : NN2
. : PUN
There : EX0
's : VBZ
no : AT0
definite : AJ0
link : NN1
. : PUN
’ : PUQ
‘ : PUQ
The : AT0
situation : NN1
might : VM0
be : VBI
clearer : AJC
when : CJS
I : PNP
've : VHB
finished : VVN
. : PUN
’ : PUQ
Sorge : NP0-NN1
looked : VVD
round : PRP-AVP
the : AT0
table : NN1
, : PUN
saw : VVD
their : DPS
undisguised : AJ0
curiosity : NN1
. : PUN
‘ : PUQ
In : PRP
1942 : CRD
, : PUN
in : PRP
Germany : NP0
, : PUN
we : PNP
had : VHD
a : AT0
GRU : NN1
network : NN1
named : VVD
the : AT0
Rote : NP0-NN1
Kapelle : NP0
… : PUN
’ : PUQ
‘ : PUQ
What : DTQ
's : VBZ
that : DT0
? : PUN
’ : PUQ
asked : VVD
the : AT0
Exec : NP0-NN1
Director : NN1
. : PUN
‘ : PUQ
Red : AJ0
Orchestra : NN1
. : PUN
The : AT0
Nazis : NN2
called : VVD
it : PNP
that : CJT
because : CJS
we : PNP
had : VHD
radio : NN1
operators : NN2
we : PNP
code-named : AJ0
musicians : NN2
. : PUN
Their : DPS
leader : NN1
, : PUN
the : AT0
Chef : NN1
, : PUN
we : PNP
called : VVD
him : PNP
, : PUN
was : VBD
Leopold : NP0
Trepper : NP0-NN1
. : PUN
It : PNP
was : VBD
this : DT0
group : NN1
that : CJT
radioed : VVD
the : AT0
warning : NN1
of : PRF
Operation : NN1
Blue : NN1-AJ0
, : PUN
the : AT0
attack : NN1
on : PRP
Stalingrad : NP0
that : CJT-DT0
led : VVD
to : PRP
Hitler : NP0
's : POS
biggest : AJS
wartime : NN1
disaster : NN1
on : PRP
the : AT0
Russian : AJ0
Front : NN1
. : PUN
’ : PUQ
‘ : PUQ
Who : PNQ
was : VBD
feeding : VVG
you : PNP
all : DT0
this : DT0
information : NN1
in : PRP
Germany : NP0
? : PUN
’ : PUQ
asked : VVD
the : AT0
Exec : NP0-NN1
Director : NN1
. : PUN
‘ : PUQ
High-ranking : AJ0
officials : NN2
. : PUN
Both : AV0
in : PRP
the : AT0
military : NN1
and : CJC
in : PRP
the : AT0
Government : NN1
. : PUN
They : PNP
saw : VVD
the : AT0
damage : NN1
Hitler : NP0
was : VBD
doing : VDG
. : PUN
They : PNP
did : VDD
n't : XX0
disagree : VVI
with : PRP
his : DPS
aims : NN2
, : PUN
only : AV0
his : DPS
methods : NN2
. : PUN
When : CJS
they : PNP
saw : VVD
that : CJT
the : AT0
war : NN1
could : VM0
not : XX0
be : VBI
won : VVN
, : PUN
even : AV0
as : AV0
early : AV0-AJ0
as : CJS
1941 : CRD
, : PUN
some : DT0
of : PRF
them : PNP
opened : VVD
up : AVP
lines : NN2
of : PRF
communication : NN1
with : PRP
us : PNP
and : CJC
the : AT0
British : AJ0
. : PUN
’ : PUQ
‘ : PUQ
We : PNP
did : VDD
n't : XX0
get : VVI
that : DT0
sort : NN1
of : PRF
stuff : NN1
till : PRP-CJS
late : AJ0-AV0
into : PRP
1944 : CRD
, : PUN
’ : PUQ
said : VVD
the : AT0
DDA : NN1-NP0
. : PUN
‘ : PUQ
You : PNP
were : VBD
n't : XX0
Europeans : NN2
. : PUN
We : PNP
had : VHD
centuries : NN2
of : PRF
contacts : NN2
to : TO0
fall : VVI
back : AVP
on : PRP-AVP
. : PUN
For : PRP
all : DT0
their : DPS
bravery : NN1
and : CJC
resourcefulness : NN1
, : PUN
their : DPS
information : NN1
was : VBD
often : AV0
wasted : VVN-VVD
, : PUN
because : CJS
Stalin : NP0
did : VDD
n't : XX0
believe : VVI
them : PNP
. : PUN
But : CJC
then : AV0
, : PUN
he : PNP
found : VVD
it : PNP
difficult : AJ0
to : TO0
believe : VVI
anyone : PNI
. : PUN
The : AT0
Germans : NN2
, : PUN
with : PRP
more : AV0
sophisticated : AJ0
radio-tracking : AJ0-NN1
equipment : NN1
, : PUN
started : VVD
to : TO0
track : VVI
down : AVP
the : AT0
musicians : NN2
. : PUN
Even : AV0
Trepper : NP0-NN1
was : VBD
captured : VVN
and : CJC
the : AT0
Rote : NP0-NN1
Kapelle : NP0
was : VBD
wound : VVN
up : AVP
at : PRP
the : AT0
end : NN1
of : PRF
1942 : CRD
. : PUN
Our : DPS
information : NN1
continued : VVD-VVN
for : PRP
a : AT0
while : NN1
, : PUN
but : CJC
it : PNP
was : VBD
of : PRF
doubtful : AJ0
origin : NN1
. : PUN
Trepper : NN1-NP0
was : VBD
interrogated : VVN
by : PRP
the : AT0
Gestapo : NP0
and : CJC
we : PNP
believed : VVD
he : PNP
became : VVD
a : AT0
double : AJ0
agent : NN1
, : PUN
a : AT0
lot : NN1
of : PRF
misinformation : NN1
was : VBD
received : VVN
in : PRP
Moscow : NP0
. : PUN
’ : PUQ
Sorge : NP0-NN1
leant : VVD
across : AV0
and : CJC
finished : VVD
his : DPS
coffee : NN1
before : PRP
continuing : VVG
. : PUN
‘ : PUQ
But : CJC
we : PNP
still : AV0
needed : VVD
information : NN1
. : PUN
The : AT0
overall : AJ0-NN1
network : NN1
with : PRP
sources : NN2
inside : PRP
Germany : NP0
was : VBD
the : AT0
Rote : NP0-NN1
Drei : NP0
. : PUN
’ : PUQ
‘ : PUQ
The : AT0
Red : NN1-AJ0
what : DTQ
? : PUN
’ : PUQ
said : VVD
the : AT0
Exec : NP0-NN1
Director : NN1
, : PUN
pleased : VVD-AJ0
that : CJT
he : PNP
had : VHD
deciphered : VVN
the : AT0
first : ORD
word : NN1
of : PRF
the : AT0
new : AJ0
code-name : NN1
. : PUN
‘ : PUQ
Three : CRD
. : PUN
The : AT0
Red : AJ0-NN1
Three : CRD
. : PUN
Based : VVN
in : PRP
Switzerland : NP0
and : CJC
named : VVN-VVD
after : PRP
the : AT0
three : CRD
transmitters : NN2
that : CJT
they : PNP
used : VVD
. : PUN
The : AT0
most : AV0
important : AJ0
source : NN1
of : PRF
information : NN1
, : PUN
from : PRP
agents : NN2
inside : PRP
Germany : NP0
, : PUN
was : VBD
from : PRP
a : AT0
group : NN1
under : PRP
Rudolf : NP0
Roessler : NP0
. : PUN
His : DPS
code-name : NN1
was : VBD
Lucy : NP0
and : CJC
his : DPS
network : NN1
, : PUN
the : AT0
Lucy : NP0
Ring : NN1-VVB
. : PUN
Roessler : NN1-NP0
, : PUN
or : CJC
Lucy : NP0
, : PUN
was : VBD
a : AT0
Swiss : AJ0
Intelligence : NN1
Officer : NN1
of : PRF
German : AJ0
extraction : NN1
. : PUN
He : PNP
had : VHD
many : DT0
contacts : NN2
in : PRP
Germany : NP0
. : PUN
Lucy : NP0
's : POS
four : CRD
main : AJ0
contacts : NN2
were : VBD
Major : NP0
General : NP0
Oster : NP0
who : PNQ
was : VBD
the : AT0
head : NN1
of : PRF
the : AT0
Abwehr : NN1-NP0
; : PUN
Admiral : NP0
Canaris : NP0
who : PNQ
was : VBD
later : AV0
hanged : VVN
for : PRP
his : DPS
part : NN1
in : PRP
the : AT0
1944 : CRD
bomb : NN1-VVB
plot : NN1-VVB
; : PUN
Carl : NP0
Goehdeler : NP0-NN1
who : PNQ
was : VBD
leader : NN1
of : PRF
the : AT0
official : AJ0
opposition : NN1
to : PRP
Hitler : NP0
; : PUN
and : CJC
Colonel : NP0
Boetzel : NP0
, : PUN
the : AT0
commanding : AJ0
officer : NN1
of : PRF
Intelligence : NN1
Evaluation : NN1
. : PUN
There : EX0
were : VBD
others : NN2
, : PUN
but : CJC
Lucy : NP0
never : AV0
disclosed : VVN
any : DT0
of : PRF
them : PNP
to : PRP
us : PNP
. : PUN
’ : PUQ
‘ : PUQ
Even : AV0
after : PRP
the : AT0
war : NN1
? : PUN
’ : PUQ
asked : VVD
the : AT0
DDI : NP0
. : PUN
‘ : PUQ
The : AT0
Lucy : NP0
Ring : NN1
was : VBD
disbanded : VVN
in : PRP
1943 : CRD
, : PUN
after : PRP
being : VBG
responsible : AJ0
for : PRP
some : DT0
invaluable : AJ0
work : NN1
. : PUN
I : PNP
wo : VM0
n't : XX0
go : VVI
through : PRP-AVP
all : DT0
their : DPS
successes : NN2
, : PUN
but : CJC
it : PNP
was : VBD
substantial : AJ0
. : PUN
The : AT0
British : AJ0
were : VBD
involved : AJ0
with : PRP
them : PNP
through : PRP
us : PNP
and : CJC
it : PNP
was : VBD
their : DPS
advanced : AJ0
work : NN1
on : PRP
breaking : VVG
cyphers : NN2
that : CJT
enabled : VVD
the : AT0
ring : NN1
to : TO0
establish : VVI
such : DT0
a : AT0
great : AJ0
record : NN1
. : PUN
But : CJC
the : AT0
ring : NN1
disbanded : VVD-VVN
, : PUN
once : AV0
more : AV0
because : CJS
of : PRF
Stalin : NP0
's : POS
penchant : NN1
for : PRP
secrecy : NN1
, : PUN
after : CJS-PRP
Moscow : NP0
tried : VVD
to : TO0
bypass : VVI
Roessler : NP0
and : CJC
go : VVB
direct : AJ0-AV0
to : PRP
his : DPS
Number : NN1
Two : CRD
. : PUN
’ : PUQ
‘ : PUQ
So : AV0
, : PUN
where : AVQ
's : VBZ
the : AT0
link : NN1
? : PUN
’ : PUQ
interrupted : VVD
the : AT0
DDA : NN1-NP0
, : PUN
impatient : AJ0
as : CJS
ever : AV0
. : PUN
‘ : PUQ
It : PNP
's : VBZ
important : AJ0
you : PNP
understand : VVB
the : AT0
background : NN1
, : PUN
’ : PUQ
said : VVD
Sorge : NP0-NN1
, : PUN
not : XX0
allowing : VVG
the : AT0
American : NN1
to : TO0
get : VVI
under : PRP-AVP
his : DPS
skin : NN1
. : PUN
‘ : PUQ
Nothing : PNI
further : AV0
came : VVD
from : PRP
the : AT0
ring : NN1
until : PRP
the : AT0
last : ORD
few : DT0
weeks : NN2
of : PRF
the : AT0
war : NN1
. : PUN
With : PRP
the : AT0
Allies : NN2
advancing : VVG-AJ0
on : PRP
the : AT0
Eastern : AJ0
and : CJC
Western : AJ0
fronts : NN2
, : PUN
many : DT0
high-ranking : AJ0
Germans : NN2
were : VBD
out : AVP
to : TO0
save : VVI
their : DPS
own : DT0
necks : NN2
. : PUN
The : AT0
Lucy : NP0
Ring : NN1
was : VBD
reactivated : VVN-AJ0
, : PUN
this : DT0
time : NN1
without : PRP
the : AT0
knowledge : NN1
of : PRF
the : AT0
British : AJ0
. : PUN
’ : PUQ
‘ : PUQ
Or : CJC
the : AT0
Americans : NN2
, : PUN
’ : PUQ
commented : VVD
the : AT0
Exec : NP0-NN1
Director : NN1
. : PUN
‘ : PUQ
I : PNP
suggest : VVB
you : PNP
take : VVB
that : DT0
up : AVP
with : PRP
Comrade : NP0
Stalin : NP0
, : PUN
’ : PUQ
replied : VVD
Sorge : NP0-NN1
drily : AV0
. : PUN
‘ : PUQ
It : PNP
was : VBD
an : AT0
impressive : AJ0
list : NN1
. : PUN
They : PNP
did : VDD
n't : XX0
just : AV0
have : VHI
knowledge : NN1
. : PUN
They : PNP
also : AV0
had : VHD
wealth : NN1
. : PUN
In : PRP
all : DT0
forms : NN2
. : PUN
Art : NN1
, : PUN
cash : NN1-VVB
, : PUN
in : PRP
every : AT0
form : NN1
possible : AJ0
. : PUN
They : PNP
used : VVD
the : AT0
ring : NN1
because : CJS
of : PRF
their : DPS
line : NN1
into : PRP
Switzerland : NP0
. : PUN
They : PNP
wanted : VVD
the : AT0
security : NN1
of : PRF
the : AT0
Swiss : AJ0
banks : NN2
and : CJC
the : AT0
Russian : AJ0
Bear : NN1
. : PUN
One : PNI-CRD
was : VBD
dependent : AJ0
on : PRP
the : AT0
other : NN1
. : PUN
’ : PUQ
‘ : PUQ
So : CJS
they : PNP
bought : VVD
immunity : NN1
. : PUN
While : CJS
our : DPS
boys : NN2
were : VBD
still : AV0
getting : VVG
killed : AJ0-VVN
, : PUN
’ : PUQ
snapped : VVD
the : AT0
DDI : NP0
. : PUN
‘ : PUQ
As : CJS
were : VBD
ours : PNP
, : PUN
’ : PUQ
snapped : VVD
back : AVP
Sorge : NN1-NP0
. : PUN
‘ : PUQ
But : CJC
your : DPS
hands : NN2
were : VBD
n't : XX0
that : AV0
clean : AJ0
. : PUN
You : PNP
were : VBD
bringing : VVG
scientists : NN2
and : CJC
others : NN2
into : PRP
America : NP0
just : AV0
as : CJS
we : PNP
were : VBD
. : PUN
Scientists : NN2
with : PRP
Nazi : AJ0
records : NN2
, : PUN
scientists : NN2
with : PRP
a : AT0
history : NN1
of : PRF
brutality : NN1
, : PUN
war : NN1
criminals : NN2
. : PUN
’ : PUQ
‘ : PUQ
Gentlemen : NN2
, : PUN
please : AV0
, : PUN
’ : PUQ
said : VVD
Nowak : NP0
, : PUN
ever : AV0
the : AT0
diplomat : NN1
. : PUN
‘ : PUQ
Can : VM0
we : PNP
just : AV0
stick : VVI
to : PRP
what : DTQ
we : PNP
're : VBB
here : AV0
to : TO0
discuss : VVI
? : PUN
Go : VVB
on : AVP
, : PUN
Dimitri : NP0-NN1
. : PUN
’ : PUQ
Sorge : NN1-NP0
was : VBD
annoyed : AJ0
with : PRP
himself : PNX
, : PUN
irritated : VVD
that : CJT
he : PNP
had : VHD
allowed : VVN
the : AT0
Intelligence : NN1
man : NN1
to : TO0
get : VVI
under : PRP-AVP
his : DPS
skin : NN1
. : PUN
‘ : PUQ
Of : PRF
course : NN1
, : PUN
’ : PUQ
he : PNP
smiled : VVD
back : AVP
. : PUN
‘ : PUQ
Now : AV0
… : PUN
ah : ITJ
, : PUN
yes : ITJ
… : PUN
we : PNP
used : VVD
the : AT0
Lucy : NP0
Ring : NN1-VVB
. : PUN
Many : DT0
Germans : NN2
, : PUN
with : PRP
their : DPS
prizes : NN2
, : PUN
crossed : VVD
safely : AV0
into : PRP
Switzerland : NP0
. : PUN
They : PNP
came : VVD
in : PRP-AVP
cars : NN2
, : PUN
army : NN1
lorries : NN2
, : PUN
even : AV0
an : AT0
aeroplane : NN1
. : PUN
Their : DPS
riches : NN2
were : VBD
stored : VVN
in : PRP
the : AT0
banks : NN2
under : PRP
private : AJ0
accounts : NN2
and : CJC
then : AV0
they : PNP
were : VBD
brought : VVN
through : PRP
Czechoslovakia : NP0
and : CJC
East : NP0
Germany : NP0
into : PRP
the : AT0
Soviet : AJ0
Union : NN1
. : PUN
’ : PUQ
‘ : PUQ
All : DT0
of : PRF
them : PNP
? : PUN
’ : PUQ
asked : VVD
the : AT0
DDA : NN1-NP0
. : PUN
‘ : PUQ
Those : DT0
who : PNQ
broke : VVD
their : DPS
word : NN1
were : VBD
hunted : VVN
down : AVP
. : PUN
’ : PUQ
‘ : PUQ
And : CJC
disposed : AJ0-VVD
of : PRF
? : PUN
’ : PUQ
‘ : PUQ
Some : DT0
needed : VVD
reminding : VVG
that : CJT
we : PNP
expected : VVD
them : PNP
to : TO0
honour : VVI
their : DPS
word : NN1
. : PUN
’ : PUQ
It : PNP
was : VBD
a : AT0
cold : AJ0
reminder : NN1
of : PRF
their : DPS
world : NN1
, : PUN
of : PRF
the : AT0
business : NN1
they : PNP
traded : VVD
in : AVP
daily : AV0
. : PUN
‘ : PUQ
We : PNP
had : VHD
a : AT0
large : AJ0
colony : NN1
of : PRF
Nazis : NN2
living : VVG
in : PRP
the : AT0
Soviet : AJ0
Union : NN1
. : PUN
They : PNP
were : VBD
n't : XX0
all : DT0
scientists : NN2
, : PUN
in : PRP
fact : NN1
we : PNP
had : VHD
little : DT0
use : NN1-VVB
for : PRP
most : DT0
of : PRF
them : PNP
. : PUN
They : PNP
had : VHD
their : DPS
own : DT0
estates : NN2
and : CJC
farms : NN2
to : PRP
the : AT0
west : NN1
of : PRF
Moscow : NP0
. : PUN
They : PNP
kept : VVD
their : DPS
secret : AJ0-NN1
identities : NN2
and : CJC
paid : VVD
for : PRP
it : PNP
through : PRP-AVP
their : DPS
Swiss : AJ0
bank : NN1
accounts : NN2
. : PUN
But : CJC
they : PNP
remained : VVD
Germans : NN2
, : PUN
always : AV0
dreaming : VVG-AJ0
of : PRF
going : VVG
back : AVP
to : PRP
the : AT0
Fatherland : NN1
one : CRD
day : NN1
. : PUN
’ : PUQ
‘ : PUQ
How : AVQ
many : DT0
Nazis : NN2
did : VDD
you : PNP
take : VVI
to : PRP
Russia : NP0
after : PRP
the : AT0
war : NN1
? : PUN
’ : PUQ
‘ : PUQ
The : AT0
Narodnyi : NP0
Kommissariat : NP0-NN1
Vnutrennikh : NP0
Del : NP0
, : PUN
our : DPS
People : NN0
's : POS
Commissariat : NN1
for : PRP
Internal : AJ0
Affairs : NN2
, : PUN
was : VBD
responsible : AJ0
for : PRP
— : PUN
’ : PUQ
‘ : PUQ
I : PNP
never : AV0
heard : VVD
of : PRF
them : PNP
, : PUN
’ : PUQ
the : AT0
DDA : NP0-NN1
stopped : VVD
him : PNP
. : PUN
‘ : PUQ
NKVD : NP0
, : PUN
’ : PUQ
explained : VVD
the : AT0
DDI : NP0
patronizingly : AV0
. : PUN
‘ : PUQ
Wiped : VVN
out : AVP
twenty : CRD
million : CRD
Russians : NN2
for : PRP
Stalin : NP0
. : PUN
That : DT0
right : AJ0
? : PUN
’ : PUQ
he : PNP
challenged : VVD
Sorge : NP0-NN1
. : PUN
‘ : PUQ
More : AV0
. : PUN
Thirty : CRD
million : CRD
. : PUN
According : VVG
to : PRP
official : AJ0
sources : NN2
, : PUN
’ : PUQ
Sorge : NP0
riposted : VVD
. : PUN
‘ : PUQ
A : AT0
most : AV0
useful : AJ0
organization : NN1
. : PUN
’ : PUQ
That : DT0
should : VM0
shut : VVI
them : PNP
up : AVP
. : PUN
He : PNP
felt : VVD
the : AT0
look : NN1
of : PRF
disbelief : NN1
pass : NN1-VVB
between : PRP
the : AT0
Exec : NP0-NN1
Director : NN1
and : CJC
the : AT0
DDA : NN1-NP0
. : PUN
The : AT0
other : AJ0-NN1
just : AV0
watched : VVD
him : PNP
, : PUN
the : AT0
mocking : AJ0
smile : NN1
still : AV0
on : PRP
his : DPS
lips : NN2
. : PUN
He : PNP
would : VM0
be : VBI
the : AT0
one : CRD
Rostov : NP0
had : VHD
warned : VVN
him : PNP
to : TO0
be : VBI
wary : AJ0
of : PRF
. : PUN
He : PNP
decided : VVD
to : TO0
wipe : VVI
the : AT0
smile : NN1
off : PRP-AVP
his : DPS
face : NN1
. : PUN
‘ : PUQ
Thirty : CRD
thousand : CRD
. : PUN
That : DT0
's : VBZ
how : AVQ
many : DT0
East : NP0
Germans : NN2
we : PNP
deported : VVD
into : PRP
the : AT0
Soviet : AJ0
Union : NN1
after : PRP-CJS
the : AT0
war : NN1
. : PUN
’ : PUQ
The : AT0
DDI : NP0
's : POS
smile : NN1
disappeared : VVD
. : PUN
‘ : PUQ
Thirty : CRD
thousand : CRD
Nazis : NN2
? : PUN
Jesus : NP0
. : PUN
’ : PUQ
‘ : PUQ
Yes : ITJ
. : PUN
And : CJC
we : PNP
kept : VVD
another : DT0
hundred : CRD
and : CJC
twenty : CRD
thousand : CRD
between : PRP
1945 : CRD
and : CJC
1954 : CRD
in : PRP
Hitler : NP0
's : POS
old : AJ0
concentration : NN1
camps : NN2
. : PUN
Many : DT0
were : VBD
Nazis : NN2
, : PUN
but : CJC
businessmen : NN2
and : CJC
professionals : NN2
were : VBD
also : AV0
our : DPS
targets : NN2
. : PUN
A : AT0
third : ORD
of : PRF
those : DT0
died : VVD-VVN
. : PUN
The : AT0
others : NN2
were : VBD
eventually : AV0
released : VVN
and : CJC
absorbed : VVN-VVD
into : PRP
the : AT0
Democratic : AJ0
Republic : NN1
. : PUN
’ : PUQ
‘ : PUQ
Including : PRP
Nazi : AJ0
sympathizers : NN2
? : PUN
’ : PUQ
‘ : PUQ
Probably : AV0
. : PUN
’ : PUQ
‘ : PUQ
Does : VDZ
n't : XX0
that : DT0
concern : NN1
you : PNP
? : PUN
’ : PUQ
Sorge : NP0-NN1
shrugged : VVD
. : PUN
‘ : PUQ
Not : XX0
really : AV0
. : PUN
I : PNP
was : VBD
eight : CRD
years : NN2
old : AJ0
at : PRP
the : AT0
time : NN1
. : PUN
’ : PUQ
It : PNP
was : VBD
n't : XX0
the : AT0
answer : NN1
that : CJT
the : AT0
DDI : NP0
expected : VVD
and : CJC
Sorge : NP0-NN1
regretted : VVD
his : DPS
words : NN2
. : PUN
He : PNP
was : VBD
n't : XX0
here : AV0
to : TO0
make : VVI
jokes : NN2
. : PUN
‘ : PUQ
The : AT0
thirty : CRD
thousand : CRD
in : PRP
the : AT0
Soviet : AJ0
Union : NN1
, : PUN
as : CJS
I : PNP
said : VVD
, : PUN
became : VVD
a : AT0
community : NN1
in : PRP
their : DPS
own : DT0
right : NN1
. : PUN
Without : PRP
our : DPS
knowledge : NN1
, : PUN
over : PRP
the : AT0
years : NN2
, : PUN
with : PRP
the : AT0
use : NN1
of : PRF
their : DPS
money : NN1
and : CJC
supportive : AJ0
people : NN0
in : PRP
the : AT0
Swiss : AJ0
banks : NN2
, : PUN
they : PNP
forged : VVD
contacts : NN2
with : PRP
those : DT0
left : VVN
behind : AV0
in : PRP
East : NP0
Germany : NP0
. : PUN
They : PNP
all : DT0
had : VHD
one : CRD
dream : NN1
. : PUN
To : TO0
see : VVI
a : AT0
unified : AJ0
Germany : NP0
. : PUN
To : TO0
regain : VVI
what : DTQ
they : PNP
had : VHD
lost : VVN
. : PUN
They : PNP
had : VHD
a : AT0
code-name : NN1-AJ0
amongst : PRP
themselves : PNX
. : PUN
Something : PNI
that : CJT
linked : VVD
them : PNP
, : PUN
was : VBD
a : AT0
reminder : NN1
of : PRF
how : AVQ
they : PNP
had : VHD
got : VVN
there : AV0
. : PUN
It : PNP
had : VHD
to : TO0
be : VBI
a : AT0
safe : AJ0
name : NN1
, : PUN
innocuous : AJ0
, : PUN
nothing : PNI
that : CJT
would : VM0
draw : VVI
attention : NN1
to : PRP
the : AT0
past : NN1
. : PUN
They : PNP
remembered : VVD
the : AT0
Lucy : NP0
network : NN1
, : PUN
their : DPS
gateway : NN1
out : AVP
of : PRF
Germany : NP0
. : PUN
They : PNP
called : VVD
themselves : PNX
Die : VVB
Lucie : NP0
Geister : NN1-NP0
. : PUN
’ : PUQ
‘ : PUQ
The : AT0
Lucy : NP0
Ghosts : NN2
. : PUN
’ : PUQ
‘ : PUQ
Yes : ITJ
. : PUN
’ : PUQ
‘ : PUQ
Did : VDD
the : AT0
organization : NN1
extend : VVI
to : PRP
America : NP0
? : PUN
’ : PUQ
The : AT0
Exec : NP0-NN1
Director : NN1
was : VBD
alarmed : AJ0
. : PUN
How : AVQ
the : AT0
hell : NN1
did : VDD
they : PNP
… : PUN
‘ : PUQ
Goodenache : NP0-NN1
. : PUN
I : PNP
guess : VVB
he : PNP
was : VBD
one : CRD
of : PRF
them : PNP
? : PUN
’ : PUQ
asked : VVD
the : AT0
DDI : NP0
. : PUN
‘ : PUQ
We : PNP
were : VBD
n't : XX0
sure : AJ0
, : PUN
but : CJC
in : PRP
view : NN1
of : PRF
his : DPS
sudden : AJ0
departure : NN1
, : PUN
I : PNP
would : VM0
say : VVI
yes : ITJ
. : PUN
’ : PUQ
‘ : PUQ
Which : DTQ
ties : VVZ
Trimmler : NN1-NP0
in : AVP-PRP
. : PUN
And : CJC
God : NP0
knows : VVZ
who : PNQ
else : AV0
. : PUN
The : AT0
name : NN1
Grob : NP0
Mitzer : NP0
mean : VVB
anything : PNI
? : PUN
’ : PUQ
‘ : PUQ
He : PNP
was : VBD
one : CRD
of : PRF
their : DPS
leaders : NN2
. : PUN
It : PNP
was : VBD
the : AT0
Lucy : NP0
Ghosts : NN2
who : PNQ
supplied : VVD
him : PNP
with : PRP
the : AT0
cash : NN1
that : CJT
helped : VVD
him : PNP
build : VVI
his : DPS
empire : NN1
. : PUN
’ : PUQ
‘ : PUQ
Why : AVQ
did : VDD
n't : XX0
you : PNP
stop : VVI
it : PNP
? : PUN
Damn : VVB
it : PNP
, : PUN
you : PNP
knew : VVD
about : PRP
it : PNP
for : PRP
long : AV0
enough : AV0
, : PUN
’ : PUQ
snapped : VVD
the : AT0
Exec : NP0-NN1
Director : NN1
. : PUN
‘ : PUQ
We : PNP
did : VDD
n't : XX0
realize : VVI
how : AVQ
important : AJ0
it : PNP
was : VBD
. : PUN
We : PNP
thought : VVD
they : PNP
were : VBD
like : PRP
any : DT0
other : AJ0
wartime : NN1
group : NN1
, : PUN
nothing : PNI
more : DT0
than : CJS
reminiscences : NN2
and : CJC
marching : AJ0-VVG
songs : NN2
. : PUN
Old : AJ0
men : NN2
remembering : VVG
their : DPS
youth : NN1
. : PUN
The : AT0
importance : NN1
of : PRF
it : PNP
did : VDD
n't : XX0
surface : VVI
until : CJS-PRP
Germany : NP0
was : VBD
reunified : VVN-AJ0
. : PUN
And : CJC
it : PNP
was : VBD
only : AV0
the : AT0
Englishman : NN1
overhearing : VVG
the : AT0
conversation : NN1
between : PRP
Goodenache : NP0-NN1
and : CJC
Trimmler : NN1-NP0
that : CJT
finally : AV0
bridged : VVD
the : AT0
gap : NN1
. : PUN
’ : PUQ
‘ : PUQ
So : AV0
why : AVQ
should : VM0
the : AT0
English : AJ0-NN1
guy : NN1
take : VVB
off : AVP
with : PRP
the : AT0
girl : NN1
? : PUN
’ : PUQ
The : AT0
DDI : NP0
changed : VVD
the : AT0
subject : NN1
. : PUN
‘ : PUQ
He : PNP
's : VBZ
not : XX0
one : CRD
of : PRF
us : PNP
. : PUN
I : PNP
suggest : VVB
you : PNP
ask : VVB
your : DPS
Allies : NN2
about : PRP
that : DT0
. : PUN
Maybe : AV0
he : PNP
's : VBZ
just : AV0
an : AT0
adventurer : NN1
. : PUN
No : AT0
more : AV0
. : PUN
You : PNP
must : VM0
have : VHI
cleared : VVN
him : PNP
. : PUN
’ : PUQ
‘ : PUQ
Of : PRF
course : NN1
. : PUN
’ : PUQ
The : AT0
Exec : NP0-NN1
Director : NN1
did : VDD
n't : XX0
want : VVI
his : DPS
dirty : AJ0
washing : NN1
wrung : VVD
out : AVP
in : PRP
front : NN1
of : PRF
this : DT0
Russian : AJ0-NN1
. : PUN
‘ : PUQ
Was : VBD
there : EX0
anything : PNI
else : AV0
? : PUN
’ : PUQ
‘ : PUQ
Only : AV0
that : CJT
the : AT0
GDR : NN1-NP0
, : PUN
East : NP0
Germany : NP0
, : PUN
as : CJS
it : PNP
was : VBD
, : PUN
is : VBZ
different : AJ0
to : PRP
the : AT0
West : NN1
. : PUN
There : EX0
are : VBB
still : AV0
many : DT0
there : AV0
who : PNQ
have : VHB
n't : XX0
forgotten : VVN
the : AT0
war : NN1
. : PUN
Their : DPS
attitude : NN1
is : VBZ
different : AJ0
to : PRP
us : PNP
. : PUN
Some : DT0
are : VBB
still : AV0
waiting : VVG
for : PRP
the : AT0
war : NN1
to : TO0
end : VVI
. : PUN
They : PNP
're : VBB
a : AT0
traditional : AJ0
people : NN0
. : PUN
Many : DT0
ex-Nazis : NN2
, : PUN
even : AV0
Gestapo : NP0
, : PUN
working : VVG
and : CJC
living : VVG-AJ0
normal : AJ0
everyday : AJ0
lives : NN2
. : PUN
’ : PUQ
‘ : PUQ
Working : VVG
for : PRP
the : AT0
Stasi : NP0
. : PUN
’ : PUQ
The : AT0
DDI : NP0
reminded : VVD
them : PNP
all : DT0
of : PRF
the : AT0
secret : AJ0
police : NN2
who : PNQ
had : VHD
run : VVN
East : NP0
Germany : NP0
with : PRP
an : AT0
iron : NN1
fist : NN1
. : PUN
‘ : PUQ
Some : DT0
, : PUN
yes : ITJ
. : PUN
Others : NN2
returned : VVN-VVD
to : PRP
the : AT0
jobs : NN2
they : PNP
had : VHD
before : PRP
the : AT0
war : NN1
. : PUN
Within : PRP
the : AT0
new : AJ0
Germany : NP0
, : PUN
many : DT0
of : PRF
them : PNP
have : VHB
become : VVN
frightened : AJ0-VVN
. : PUN
Their : DPS
secrets : NN2
are : VBB
no : AV0
longer : AV0
safe : AJ0
. : PUN
Most : DT0
of : PRF
all : DT0
, : PUN
they : PNP
fear : VVB
the : AT0
Israelis : NN2
. : PUN
’ : PUQ
‘ : PUQ
Is : VBZ
Frick : NP0
one : CRD
of : PRF
these : DT0
guys : NN2
? : PUN
’ : PUQ
asked : VVD
the : AT0
DDA : NN1-NP0
, : PUN
remembering : VVG
the : AT0
name : NN1
picked : VVD
up : AVP
by : PRP
Adam : NP0
in : PRP
New : NP0
Orleans : NP0
. : PUN
‘ : PUQ
No : ITJ
, : PUN
’ : PUQ
lied : VVD
Sorge : NP0-NN1
. : PUN
His : DPS
orders : NN2
were : VBD
quite : AV0
specific : AJ0
. : PUN
Do : VDB
n't : XX0
ratify : VVI
any : DT0
names : NN2
. : PUN
They : PNP
did : VDD
n't : XX0
want : VVI
the : AT0
Yanks : NN2
stumbling : VVG
in : AVP
and : CJC
screwing : VVG
up : AVP
in : PRP
an : AT0
attempt : NN1
to : TO0
force : VVI
the : AT0
issue : NN1
. : PUN
‘ : PUQ
So : AV0
what : DTQ
's : VBZ
all : DT0
this : DT0
got : VVD
to : TO0
do : VDI
with : PRP
the : AT0
deaths : NN2
of : PRF
our : DPS
agents : NN2
? : PUN
’ : PUQ
continued : VVD
the : AT0
DDA : NN1-NP0
. : PUN
‘ : PUQ
We : PNP
're : VBB
not : XX0
sure : AJ0
. : PUN
Except : CJS
that : CJT
a : AT0
lot : NN1
of : PRF
the : AT0
information : NN1
we : PNP
have : VHB
both : AV0
lost : VVN
was : VBD
about : PRP
the : AT0
Lucy : NP0
Ghosts : NN2
. : PUN
Link : VVB
that : CJT-DT0
with : PRP
Trimmler : NP0-NN1
's : POS
death : NN1
, : PUN
Goodenache : NP0
's : POS
sudden : AJ0
departure : NN1
for : PRP
Germany : NP0
and : CJC
the : AT0
mention : NN1
of : PRF
the : AT0
Lucy : NP0
Ghosts : NN2
during : PRP
their : DPS
conversation : NN1
, : PUN
and : CJC
I : PNP
think : VVB
you : PNP
will : VM0
agree : VVI
that : DT0-CJT
is : VBZ
the : AT0
strongest : AJS
lead : NN1-VVB
we : PNP
have : VHB
to : TO0
follow : VVI
. : PUN
’ : PUQ
Nobody : PNI
spoke : VVD
for : PRP
a : AT0
while : NN1
, : PUN
then : AV0
the : AT0
Exec : NP0-NN1
Director : NN1
reopened : VVD
the : AT0
discussion : NN1
. : PUN
‘ : PUQ
Has : VHZ
Moscow : NP0
any : DT0
suggestions : NN2
as : CJS
to : PRP
how : AVQ
we : PNP
should : VM0
proceed : VVI
? : PUN
’ : PUQ
‘ : PUQ
No : ITJ
, : PUN
’ : PUQ
replied : VVD
Sorge : NP0-NN1
, : PUN
which : DTQ
was : VBD
what : DTQ
he : PNP
'd : VHD
been : VBN
told : VVN
to : TO0
say : VVI
. : PUN
‘ : PUQ
We : PNP
hoped : VVD
you : PNP
would : VM0
come : VVI
up : AVP
with : PRP
something : PNI
. : PUN
’ : PUQ
‘ : PUQ
I : PNP
'm : VBB
sure : AJ0
we : PNP
will : VM0
. : PUN
’ : PUQ
‘ : PUQ
Can : VM0
you : PNP
tell : VVI
us : PNP
the : AT0
names : NN2
of : PRF
some : DT0
of : PRF
these : DT0
Lucy : NP0
Ghosts : NN2
? : PUN
’ : PUQ
cut : VVD
in : PRP
the : AT0
DDI : NP0
. : PUN
‘ : PUQ
The : AT0
ones : NN2
in : PRP
Russia : NP0
. : PUN
How : AVQ
high : AJ0
up : PRP-AVP
the : AT0
ladder : NN1
did : VDD
they : PNP
go : VVI
? : PUN
’ : PUQ
Sorge : NP0-NN1
enjoyed : VVD
his : DPS
reply : NN1
. : PUN
‘ : PUQ
In : PRP
time : NN1
, : PUN
yes : ITJ
. : PUN
But : CJC
I : PNP
can : VM0
tell : VVI
you : PNP
you : PNP
're : VBB
wasting : VVG
your : DPS
efforts : NN2
looking : VVG
for : PRP
Martin : NP0
Bormann : NP0
in : PRP
South : NN1
America : NP0
. : PUN
He : PNP
died : VVD
twenty : CRD
years : NN2
ago : AV0
. : PUN
’ : PUQ
He : PNP
watched : VVD
their : DPS
stunned : AJ0
faces : NN2
across : PRP
the : AT0
room : NN1
. : PUN
Well : AV0
and : CJC
truly : AV0
shafted : VVD
. : PUN
They : PNP
said : VVD
little : AV0
after : PRP
that : DT0
and : CJC
Sorge : NP0-NN1
was : VBD
soon : AV0
being : VBG
escorted : VVN
, : PUN
with : PRP
Nowak : NP0
, : PUN
down : AVP
to : PRP
the : AT0
underground : AJ0
garage : NN1
. : PUN
Five : CRD
minutes : NN2
later : AV0
they : PNP
were : VBD
on : PRP
their : DPS
way : NN1
back : AVP
to : PRP
Washington : NP0
. : PUN
‘ : PUQ
Bormann : NP0
. : PUN
Fucking : AJ0-AV0
Bormann : NN1-NP0
. : PUN
They : PNP
had : VHD
him : PNP
all : DT0
the : AT0
time : NN1
, : PUN
’ : PUQ
said : VVD
an : AT0
astonished : AJ0
DDI : NP0
. : PUN
‘ : PUQ
Would'ya : NN1-NP0
believe : VVB
it : PNP
? : PUN
They : PNP
probably : AV0
got : VVD
Hitler : NP0
stashed : VVD
away : AV0
too : AV0
. : PUN
’ : PUQ
‘ : PUQ
Well : AV0
, : PUN
it : PNP
's : VHZ
been : VBN
a : AT0
real : AJ0
eye-opener : NN1
, : PUN
’ : PUQ
said : VVD
the : AT0
Exec : NP0-NN1
Director : NN1
. : PUN
‘ : PUQ
But : CJC
let's : VM0
not : XX0
forget : VVI
we : PNP
've : VHB
still : AV0
got : VVN
a : AT0
crisis : NN1
on : AVP-PRP
. : PUN
Find : VVB
the : AT0
Englishman : NN1
. : PUN
That : DT0
's : VBZ
our : DPS
first : ORD
priority : NN1
. : PUN
Find : VVB
him : PNP
and : CJC
see : VVB
what : DTQ
the : AT0
son : NN1
of : PRF
a : AT0
bitch : NN1
is : VBZ
up : AVP
to : PRP
. : PUN
’ : PUQ
The : AT0
AmTrak : NP0
Crescent : NP0
Atlanta : NP0
Georgia : NP0
The : AT0
train : NN1
pulled : VVN-VVD
out : AVP
of : PRF
Atlanta : NP0
Station : NN1
at : PRP
7.39 : CRD
p.m. : AV0
, : PUN
four : CRD
minutes : NN2
behind : PRP
schedule : NN1
. : PUN
They : PNP
had : VHD
slept : VVN
well : AV0
, : PUN
eaten : VVN
well : AV0
, : PUN
slept : VVD
again : AV0
and : CJC
eventually : AV0
got : VVN-VVD
bored : AJ0
with : PRP
the : AT0
passing : AJ0-NN1
countryside : NN1
. : PUN
Adam : NP0
had : VHD
insisted : VVN
they : PNP
stay : VVB
in : PRP-AVP
the : AT0
room : NN1
and : CJC
she : PNP
had : VHD
n't : XX0
found : VVN
a : AT0
good : AJ0
enough : AV0
reason : VVB-NN1
to : TO0
change : VVI
his : DPS
mind : NN1
. : PUN
He : PNP
was : VBD
thumbing : VVG
through : PRP
USA : NP0
Today : AV0
for : PRP
the : AT0
umpteenth : ORD
time : NN1
, : PUN
looking : VVG
for : PRP
something : PNI
he : PNP
might : VM0
have : VHI
missed : VVN
, : PUN
when : CJS-AVQ
he : PNP
heard : VVD
her : PNP
giggling : VVG-NN1
. : PUN
She : PNP
was : VBD
in : PRP
the : AT0
swivel : NN1
chair : NN1
, : PUN
reflected : VVN-VVD
in : PRP
the : AT0
window : NN1
with : PRP
the : AT0
dark : AJ0
night : NN1
as : PRP-CJS
a : AT0
backdrop : NN1
, : PUN
her : DPS
head : NN1
angled : VVN-VVD
towards : PRP
him : PNP
. : PUN
‘ : PUQ
What : DTQ
's : VBZ
so : AV0
funny : AJ0
? : PUN
’ : PUQ
he : PNP
asked : VVD
pleasantly : AV0
, : PUN
putting : VVG
the : AT0
paper : NN1
down : AVP
. : PUN
‘ : PUQ
You : PNP
sure : AV0-AJ0
know : VVB
how : AVQ
to : TO0
give : VVI
a : AT0
girl : NN1
a : AT0
good : AJ0
time : NN1
. : PUN
’ : PUQ
‘ : PUQ
Do : VDB
n't : XX0
I : PNP
? : PUN
’ : PUQ
he : PNP
grinned : VVD
back : AVP
. : PUN
‘ : PUQ
According : VVG
to : PRP
all : DT0
the : AT0
books : NN2
, : PUN
a : AT0
secret : AJ0
agent : NN1
's : POS
life : NN1
's : VBZ
meant : VVN
to : TO0
be : VBI
glamorous : AJ0
. : PUN
We : PNP
've : VHB
spent : VVN
twenty-four : CRD
hours : NN2
together : AV0
and : CJC
in : PRP
that : DT0
time : NN1
I : PNP
've : VHB
been : VBN
bitten : VVN
by : PRP
bugs : NN2
in : PRP
a : AT0
hooker : NN1
's : POS
bed : NN1
, : PUN
tied : VVD
up : AVP
a : AT0
guy : NN1
with : PRP
no : AT0
legs : NN2
and : CJC
stolen : VVN
his : DPS
wheelchair : NN1
, : PUN
stayed : VVD
cooped : VVN
up : AVP
in : PRP
a : AT0
train : NN1
for : PRP
twelve : CRD
hours : NN2
with : PRP
an : AT0
attractive : AJ0
man : NN1
and : CJC
behaved : VVD-VVN
like : PRP
a : AT0
virgin : NN1-AJ0
. : PUN
Do : VDB
n't : XX0
take : VVI
that : DT0
the : AT0
wrong : AJ0
way : NN1
. : PUN
But : CJC
James : NP0
Bond : NP0
would : VM0
've : VHI
handled : VVN
it : PNP
differently : AV0
. : PUN
’ : PUQ
‘ : PUQ
He : PNP
was : VBD
Scottish : AJ0
. : PUN
I : PNP
'm : VBB
English : AJ0
. : PUN
They : PNP
prefer : VVB
the : AT0
ram : VVB-NN1
'em : PNP
and : CJC
bang : VVB
'em : PNP
method : NN1
. : PUN
We : PNP
're : VBB
more : AV0
sophisticated : AJ0
in : PRP
our : DPS
approach : NN1
. : PUN
’ : PUQ
‘ : PUQ
What : DTQ
happens : VVZ
next : ORD
? : PUN
’ : PUQ
‘ : PUQ
In : PRP
which : DTQ
department : NN1
? : PUN
’ : PUQ
‘ : PUQ
In : PRP
the : AT0
where're-we-going : AJ0-NN1
department : NN1
. : PUN
’ : PUQ
‘ : PUQ
To : PRP
Nordhausen : NP0
. : PUN
That : DT0
's : VBZ
where : AVQ
Trimmler : NP0
said : VVD
he : PNP
would : VM0
meet : VVI
Goodenache : NN1-NP0
. : PUN
’ : PUQ
‘ : PUQ
Trimmler : NP0
's : VBZ
dead : AJ0
. : PUN
’ : PUQ
‘ : PUQ
And : CJC
Goodenache : NP0-NN1
's : POS
running : NN1-VVG
from : PRP
the : AT0
Russians : NN2
. : PUN
He : PNP
ca : VM0
n't : XX0
go : VVI
back : AVP
there : AV0
. : PUN
From : PRP
what : DTQ
I : PNP
heard : VVD
, : PUN
Germany : NP0
was : VBD
still : AV0
their : DPS
home : NN1
. : PUN
And : CJC
Nordhausen : NP0
was : VBD
where : AVQ
they : PNP
shared : VVD
something : PNI
special : AJ0
. : PUN
They : PNP
wanted : VVD
to : TO0
go : VVI
there : AV0
. : PUN
If : CJS
Goodenache : NP0
's : POS
frightened : AJ0
, : PUN
and : CJC
he : PNP
wants : VVZ
to : TO0
hide : VVI
, : PUN
that : DT0
's : VBZ
as : AV0
good : AJ0-AV0
a : AT0
place : NN1
as : CJS
any : DT0
. : PUN
’ : PUQ
‘ : PUQ
Nordhausen : NP0
. : PUN
Where : AVQ
is : VBZ
that : DT0
? : PUN
’ : PUQ
‘ : PUQ
Central : AJ0
Germany : NP0
. : PUN
South : NN1
of : PRF
Berlin : NP0
, : PUN
near : PRP
what : DTQ
was : VBD
the : AT0
old : AJ0
East-West : AJ0
border : NN1
. : PUN
An : AT0
industrial : AJ0
town : NN1
. : PUN
It : PNP
was : VBD
also : AV0
where : AVQ
the : AT0
Nazis : NN2
built : VVN-VVD
most : DT0
of : PRF
their : DPS
rockets : NN2
, : PUN
the : AT0
V1s : UNC
and : CJC
V2s : UNC
, : PUN
during : PRP
the : AT0
Second : ORD
World : NN1
War : NN1
. : PUN
From : PRP
what : DTQ
I : PNP
remember : VVB
, : PUN
they : PNP
moved : VVD
most : DT0
of : PRF
the : AT0
rocket : NN1
manufacture : NN1-VVB
down : AVP
there : AV0
so : AV0
that : CJT
our : DPS
bombers : NN2
could : VM0
n't : XX0
get : VVI
to : PRP
them : PNP
. : PUN
Built : VVD-VVN
the : AT0
factory : NN1
right : NN1
in : PRP
the : AT0
heart : NN1
of : PRF
the : AT0
mountains : NN2
. : PUN
Used : AJ0
slave : NN1
labour : NN1
. : PUN
I : PNP
think : VVB
a : AT0
lot : NN1
of : PRF
people : NN0
died : VVD
in : PRP
the : AT0
making : NN1
of : PRF
those : DT0
weapons : NN2
, : PUN
before : CJS
they : PNP
ever : AV0
got : VVD
launched : VVN
and : CJC
blew : VVD
up : AVP
half : DT0
of : PRF
London : NP0
. : PUN
’ : PUQ
‘ : PUQ
Why : AVQ
would : VM0
they : PNP
want : VVI
to : TO0
go : VVI
back : AVP
there : AV0
? : PUN
’ : PUQ
‘ : PUQ
Who : PNQ
knows : VVZ
. : PUN
Maybe : AV0
it : PNP
was : VBD
a : AT0
job : NN1
they : PNP
never : AV0
finished : VVN
. : PUN
’ : PUQ
‘ : PUQ
But : CJC
they : PNP
did : VDD
. : PUN
Those : DT0
guys : NN2
put : VVB
people : NN0
into : PRP
space : NN1
, : PUN
put : VVD
our : DPS
people : NN0
on : PRP
the : AT0
moon : NN1
. : PUN
That : DT0
's : VBZ
enough : AV0
for : PRP
most : DT0
people : NN0
. : PUN
’ : PUQ
‘ : PUQ
That : DT0
was : VBD
just : AV0
their : DPS
work : NN1
. : PUN
And : CJC
they : PNP
did : VDD
n't : XX0
do : VDI
it : PNP
for : PRP
Germany : NP0
. : PUN
They : PNP
did : VDD
it : PNP
for : PRP
their : DPS
conquerors : NN2
. : PUN
’ : PUQ
‘ : PUQ
You : PNP
telling : VVG
me : PNP
that : CJT
all : DT0
those : DT0
scientists : NN2
spent : VVD
their : DPS
time : NN1
in : PRP
America : NP0
and : CJC
could : VM0
n't : XX0
wait : VVI
to : TO0
get : VVI
home : AV0
? : PUN
’ : PUQ
‘ : PUQ
Not : XX0
all : DT0
of : PRF
them : PNP
. : PUN
Most : DT0
of : PRF
them : PNP
became : VVD
good : AJ0
Americans : NN2
. : PUN
And : CJC
good : AJ0
Russians : NN2
, : PUN
I : PNP
suppose : VVB
. : PUN
But : CJC
these : DT0
two : CRD
wanted : VVD
to : TO0
go : VVI
home : AV0
. : PUN
They : PNP
never : AV0
stopped : VVD
being : VBG
Germans : NN2
. : PUN
Maybe : AV0
it : PNP
's : VBZ
the : AT0
only : AJ0
thing : NN1
they : PNP
ever : AV0
dreamt : VVD-VVN
about : PRP
. : PUN
’ : PUQ
‘ : PUQ
Weird : AJ0
. : PUN
’ : PUQ
‘ : PUQ
Is : VBZ
it : PNP
? : PUN
To : TO0
want : VVI
to : TO0
go : VVI
home : AV0
? : PUN
’ : PUQ
‘ : PUQ
All : DT0
they : PNP
're : VBB
after : AV0
is : VBZ
their : DPS
youth : NN1
. : PUN
Catching : VVG
up : AVP
with : PRP
what : DTQ
they : PNP
thought : VVD
they : PNP
'd : VHD
lost : VVN
. : PUN
’ : PUQ
‘ : PUQ
Are : VBB
n't : XX0
we : PNP
all : DT0
? : PUN
’ : PUQ
She : PNP
shrugged : VVD
and : CJC
looked : VVD
thoughtful : AJ0
. : PUN
‘ : PUQ
Penny : NP0
for : PRP
them : PNP
, : PUN
’ : PUQ
he : PNP
said : VVD
. : PUN
‘ : PUQ
I : PNP
was : VBD
… : PUN
uh : ITJ
… : PUN
just : AV0
being : VBG
a : AT0
woman : NN1
. : PUN
’ : PUQ
‘ : PUQ
Tell : VVB
me : PNP
. : PUN
’ : PUQ
‘ : PUQ
Thinking : NN1
of : PRF
Peter : NP0
. : PUN
’ : PUQ
‘ : PUQ
Ah : ITJ
! : PUN
The : AT0
venerable : AJ0
ex : NN1
. : PUN
’ : PUQ
‘ : PUQ
I : PNP
know : VVB
. : PUN
Here : AV0
's : VBZ
us : PNP
, : PUN
heading : VVG
for : PRP
trouble : NN1
and : CJC
God : NP0
knows : VVZ
what : DTQ
else : AV0
, : PUN
and : CJC
in : PRP
the : AT0
middle : NN1
of : PRF
you : PNP
talking : VVG
about : PRP
Nordhausen : NP0
, : PUN
I : PNP
start : VVB
thinking : VVG
of : PRF
Peter : NP0
. : PUN
Wondering : VVG
what : DTQ
the : AT0
hell : NN1
he : PNP
's : VBZ
up : AVP
to : PRP
. : PUN
The : AT0
emotional : AJ0
mind : NN1
of : PRF
a : AT0
woman : NN1
. : PUN
’ : PUQ
‘ : PUQ
Stop : VVB
knocking : VVG
yourself : PNX
. : PUN
’ : PUQ
‘ : PUQ
Makes : VVZ
a : AT0
change : NN1
. : PUN
I : PNP
usually : AV0
leave : VVB
that : DT0
to : PRP
you : PNP
. : PUN
’ : PUQ
He : PNP
burst : VVD
out : AVP
laughing : VVG
. : PUN
‘ : PUQ
OK : AV0
, : PUN
tough : AJ0
guy : NN1
. : PUN
What : DTQ
's : VHZ
got : VVN
you : PNP
so : AV0
tickled : VVN
? : PUN
’ : PUQ
‘ : PUQ
Here : AV0
we : PNP
are : VBB
, : PUN
crammed : VVN-VVD
in : PRP-AVP
a : AT0
small : AJ0
compartment : NN1
in : PRP
a : AT0
train : NN1
, : PUN
hurtling : VVG
across : PRP
America : NP0
being : VBG
chased : VVN
by : PRP
the : AT0
CIA : NP0
, : PUN
the : AT0
FBI : NP0
and : CJC
God : NP0
knows : VVZ
who : PNQ
else : AV0
, : PUN
and : CJC
you : PNP
're : VBB
worried : AJ0
about : PRP
your : DPS
ex-husband : NN1
's : POS
sex : NN1
life : NN1
. : PUN
Christ : NP0
, : PUN
he : PNP
must : VM0
've : VHI
been : VBN
good : AJ0
. : PUN
’ : PUQ
‘ : PUQ
He : PNP
was : VBD
a : AT0
shit : NN1
. : PUN
’ : PUQ
‘ : PUQ
So : AV0
, : PUN
why : AVQ
… : PUN
? : PUN
’ : PUQ
Adam : NP0
stopped : VVD
and : CJC
shook : VVD
his : DPS
head : NN1
. : PUN
‘ : PUQ
Because : CJS
some : DT0
of : PRF
us : PNP
like : PRP
shits : NN2
. : PUN
Do : VDB
n't : XX0
ask : VVI
me : PNP
why : AVQ
. : PUN
’ : PUQ
She : PNP
laughed : VVD
with : PRP
him : PNP
. : PUN
‘ : PUQ
He : PNP
's : VBZ
cheap : AJ0
, : PUN
too : AV0
. : PUN
He : PNP
once : AV0
bought : VVD
me : PNP
a : AT0
Louis : NP0
Vuitton : NP0
handbag : NN1
. : PUN
Your : DPS
travel : NN1
case : NN1
reminded : VVD
me : PNP
of : PRF
it : PNP
when : CJS
we : PNP
left : VVD
the : AT0
hotel : NN1
. : PUN
It : PNP
was : VBD
for : PRP
our : DPS
second : ORD
anniversary : NN1
. : PUN
I : PNP
broke : VVD
the : AT0
lock : NN1
and : CJC
took : VVD
it : PNP
back : AVP
to : PRP
the : AT0
shop : NN1
in : PRP
La : NP0
Jolla : NP0
. : PUN
They : PNP
told : VVD
me : PNP
it : PNP
was : VBD
a : AT0
fake : NN1
. : PUN
A : AT0
fucking : AJ0
Hong : NP0
Kong : NP0
fake : AJ0-NN1
. : PUN
Can : VM0
you : PNP
believe : VVI
that : DT0
? : PUN
’ : PUQ
‘ : PUQ
What : DTQ
did : VDD
he : PNP
say : VVI
? : PUN
’ : PUQ
‘ : PUQ
That : CJT
he : PNP
'd : VHD
bought : VVN
it : PNP
in : PRP
New : NP0
York : NP0
when : CJS
he : PNP
was : VBD
there : AV0
on : PRP
a : AT0
visit : NN1
. : PUN
And : CJC
if : CJS
he : PNP
could : VM0
remember : VVI
where : AVQ
the : AT0
shop : NN1
was : VBD
, : PUN
he : PNP
'd : VM0
go : VVI
back : AVP
and : CJC
sue : VVI
the : AT0
bastards : NN2
. : PUN
That : DT0
's : VBZ
Peter : NP0
for : PRP
you : PNP
. : PUN
A : AT0
cheapskate : NN1
liar : NN1
and : CJC
womanizer : NN1
. : PUN
And : CJC
I : PNP
ca : VM0
n't : XX0
let : VVI
him : PNP
go : VVI
. : PUN
That : DT0
's : VBZ
really : AV0
pathetic : AJ0
news : NN1
. : PUN
Is : VBZ
n't : XX0
it : PNP
? : PUN
’ : PUQ
‘ : PUQ
No : ITJ
. : PUN
Just : AV0-AJ0
human : AJ0-NN1
. : PUN
’ : PUQ
‘ : PUQ
Very : AV0
understanding : AJ0
. : PUN
What : DTQ
would : VM0
you : PNP
know : VVI
? : PUN
’ : PUQ
‘ : PUQ
Maybe : AV0
not : XX0
women : NN2
, : PUN
but : CJC
… : PUN
my : DPS
parents : NN2
. : PUN
And : CJC
my : DPS
twin : NN1
brother : NN1
. : PUN
’ : PUQ
‘ : PUQ
You : PNP
're : VBB
a : AT0
twin : NN1
? : PUN
’ : PUQ
‘ : PUQ
Was : VBD
. : PUN
They : PNP
all : DT0
died : VVD
when : CJS
I : PNP
was : VBD
nine : CRD
. : PUN
’ : PUQ
‘ : PUQ
You : PNP
said : VVD
they : PNP
were : VBD
out : AVP
of : PRF
the : AT0
country : NN1
. : PUN
That : CJT-DT0
you : PNP
had : VHD
guardians : NN2
. : PUN
’ : PUQ
‘ : PUQ
We : PNP
all : DT0
have : VHB
things : NN2
to : TO0
hide : VVI
. : PUN
’ : PUQ
‘ : PUQ
Was : VBD
he : PNP
an : AT0
identical : AJ0
twin : NN1
? : PUN
’ : PUQ
‘ : PUQ
Yes : ITJ
. : PUN
’ : PUQ
‘ : PUQ
That : DT0
means : VVZ
you : PNP
came : VVD
from : PRP
the : AT0
same : DT0
egg : NN1
. : PUN
That : DT0
right : AJ0
? : PUN
’ : PUQ
‘ : PUQ
Something : PNI
like : PRP
that : DT0
. : PUN
’ : PUQ
He : PNP
, : PUN
in : PRP
his : DPS
usual : AJ0
stoical : AJ0
manner : NN1
, : PUN
did : VDD
n't : XX0
tell : VVI
her : PNP
that : CJT
he : PNP
had : VHD
studiously : AV0
learnt : VVN
everything : PNI
about : PRP
twins : NN2
and : CJC
their : DPS
relationships : NN2
. : PUN
‘ : PUQ
I : PNP
had : VHD
a : AT0
boyfriend : NN1
in : PRP
High : AJ0
School : NN1
. : PUN
He : PNP
was : VBD
a : AT0
twin : NN1
and : CJC
his : DPS
brother : NN1
played : VVN-VVD
on : PRP
the : AT0
football : NN1
team : NN1
. : PUN
If : CJS
he : PNP
got : VVD
hurt : AJ0-VVN
, : PUN
my : DPS
guy : NN1
used : VM0
to : TO0
suffer : VVI
, : PUN
too : AV0
. : PUN
We : PNP
used : VM0
to : TO0
watch : VVI
the : AT0
game : NN1
together : AV0
and : CJC
I : PNP
'd : VM0
suddenly : AV0
see : VVI
him : PNP
wince : VVI
in : PRP
pain : NN1
. : PUN
Just : AV0
like : PRP
that : DT0
. : PUN
And : CJC
I : PNP
'd : VM0
look : VVI
on : PRP
the : AT0
field : NN1
and : CJC
it : PNP
was : VBD
his : DPS
brother : NN1
who : PNQ
'd : VHD
been : VBN
tackled : VVN
. : PUN
’ : PUQ
‘ : PUQ
Yes : ITJ
. : PUN
Something : PNI
like : PRP
that : DT0
. : PUN
’ : PUQ
He : PNP
laughed : VVD
. : PUN
‘ : PUQ
I : PNP
remember : VVB
once : AV0
getting : VVG
a : AT0
tap : NN1
round : PRP
the : AT0
head : NN1
from : PRP
my : DPS
dad : NN1
. : PUN
I : PNP
'd : VHD
done : VDN
something : PNI
wrong : AJ0-AV0
. : PUN
I : PNP
remember : VVB
him : PNP
saying : VVG
it : PNP
was : VBD
a : AT0
shame : NN1
that : CJT
he : PNP
had : VHD
to : TO0
punish : VVI
us : PNP
both : AV0
when : CJS
only : AV0
one : CRD
of : PRF
us : PNP
was : VBD
being : VBG
naughty : AJ0
. : PUN
That : DT0
tap : NN1
sorted : VVD
us : PNP
both : DT0
out : AVP
. : PUN
’ : PUQ
‘ : PUQ
Do : VDB
you : PNP
still : AV0
feel : VVI
he : PNP
's : VBZ
with : PRP
you : PNP
? : PUN
’ : PUQ
‘ : PUQ
He : PNP
is : VBZ
. : PUN
‘ : PUQ
Then : AV0
you : PNP
're : VBB
lucky : AJ0
. : PUN
You : PNP
're : VBB
not : XX0
alone : AJ0
. : PUN
Is : VBZ
that : DT0
so : AV0
bad : AJ0
? : PUN
’ : PUQ
‘ : PUQ
I : PNP
do : VDB
n't : XX0
know : VVI
why : AVQ
I : PNP
'm : VBB
alive : AJ0
and : CJC
he : PNP
's : VBZ
dead : AJ0
. : PUN
’ : PUQ
‘ : PUQ
What : DTQ
's : VBZ
his : DPS
name : NN1
? : PUN
’ : PUQ
‘ : PUQ
Marcus : NP0
. : PUN
’ : PUQ
‘ : PUQ
Nice : AJ0
name : NN1
. : PUN
I : PNP
'm : VBB
glad : AJ0
you : PNP
've : VHB
got : VVN
someone : PNI
to : TO0
love : VVI
. : PUN
It : PNP
's : VBZ
important : AJ0
. : PUN
The : AT0
Kremlin : NP0
Moscow : NP0
They : PNP
came : VVD
out : AVP
into : PRP
the : AT0
corridor : NN1
together : AV0
, : PUN
Rostov : NP0
holding : VVG
back : AVP
as : CJS
he : PNP
allowed : VVD
the : AT0
older : AJC
and : CJC
more : AV0
senior : AJ0
man : NN1
to : TO0
go : VVI
before : PRP
him : PNP
. : PUN
‘ : PUQ
Your : DPS
head : NN1
's : VBZ
on : PRP
the : AT0
block : NN1
, : PUN
’ : PUQ
said : VVD
the : AT0
Director : NN1
as : CJS
Rostov : NP0
caught : VVD
him : PNP
up : AVP
. : PUN
‘ : PUQ
You : PNP
know : VVB
that : CJT-DT0
, : PUN
do : VDB
n't : XX0
you : PNP
? : PUN
’ : PUQ
The : AT0
younger : AJC
man : NN1
shrugged : VVD
. : PUN
It : PNP
came : VVD
with : PRP
the : AT0
stripes : NN2
he : PNP
wore : VVD
on : PRP-AVP
his : DPS
shoulder : NN1
. : PUN
They : PNP
walked : VVD
along : AVP
, : PUN
slowly : AV0
, : PUN
at : PRP
the : AT0
old : AJ0
man : NN1
's : POS
pace : NN1
. : PUN
This : DT0
was : VBD
not : XX0
the : AT0
place : NN1
to : TO0
talk : VVI
, : PUN
here : AV0
in : PRP
the : AT0
corridors : NN2
of : PRF
power : NN1
where : CJS-AVQ
every : AT0
wall : NN1
had : VHD
ears : NN2
. : PUN
‘ : PUQ
Not : XX0
a : AT0
job : NN1
I : PNP
would : VM0
want : VVI
, : PUN
’ : PUQ
said : VVD
the : AT0
Director : NN1
, : PUN
‘ : PUQ
being : VBG
President : NN1
at : PRP
this : DT0
time : NN1
. : PUN
With : PRP
all : DT0
the : AT0
problems : NN2
we : PNP
have : VHB
between : PRP
the : AT0
republics : NN2
. : PUN
But : CJC
then : AV0
, : PUN
there : EX0
are : VBB
always : AV0
problems : NN2
. : PUN
It : PNP
is : VBZ
not : XX0
a : AT0
job : NN1
I : PNP
would : VM0
ever : AV0
want : VVI
. : PUN
’ : PUQ
They : PNP
had : VHD
spent : VVN
half : DT0
an : AT0
hour : NN1
with : PRP
the : AT0
President : NN1
, : PUN
the : AT0
Director : NN1
sitting : VVG
back : AVP
and : CJC
letting : VVG
Rostov : NP0
take : VVI
him : PNP
through : PRP-AVP
all : DT0
the : AT0
details : NN2
of : PRF
the : AT0
last : ORD
few : DT0
weeks : NN2
. : PUN
‘ : PUQ
A : AT0
confused : AJ0
sequence : NN1
of : PRF
events : NN2
, : PUN
’ : PUQ
the : AT0
President : NN1
had : VHD
said : VVN
when : CJS
Rostov : NP0
finished : VVD
. : PUN
‘ : PUQ
No : AT0
doubt : NN1
there : EX0
is : VBZ
a : AT0
logic : NN1
to : PRP
it : PNP
. : PUN
There : EX0
always : AV0
is : VBZ
. : PUN
My : DPS
main : AJ0
concern : NN1
, : PUN
after : CJS
the : AT0
safety : NN1
of : PRF
our : DPS
people : NN0
, : PUN
is : VBZ
to : TO0
ensure : VVI
that : CJT
the : AT0
Americans : NN2
and : CJC
ourselves : PNX
do : VDB
n't : XX0
turn : VVI
on : PRP-AVP
one : CRD
other : AJ0-NN1
. : PUN
It : PNP
's : VBZ
always : AV0
difficult : AJ0
to : TO0
trust : VVI
old : AJ0
enemies : NN2
. : PUN
When : CJS
I : PNP
meet : VVB
with : PRP
the : AT0
American : AJ0
President : NN1
in : PRP
Berlin : NP0
, : PUN
I : PNP
want : VVB
him : PNP
to : TO0
believe : VVI
he : PNP
can : VM0
trust : VVI
me : PNP
. : PUN
’ : PUQ
He : PNP
said : VVD
little : DT0
more : DT0
, : PUN
only : AV0
asked : VVD
to : TO0
be : VBI
kept : VVN
informed : VVN-VVD
. : PUN
He : PNP
respected : VVD
the : AT0
American : AJ0
President : NN1
. : PUN
He : PNP
did : VDD
n't : XX0
want : VVI
this : DT0
to : TO0
come : VVI
between : PRP
them : PNP
. : PUN
‘ : PUQ
He : PNP
does : VDZ
n't : XX0
totally : AV0
trust : VVI
them : PNP
either : AV0
, : PUN
’ : PUQ
the : AT0
Director : NN1
said : VVD
to : PRP
Rostov : NP0
as : CJS
they : PNP
came : VVD
out : AVP
into : PRP
the : AT0
open : NN1
. : PUN
It : PNP
was : VBD
a : AT0
bright : AJ0
day : NN1
and : CJC
the : AT0
official : AJ0-NN1
Zil : NP0-NN1
lurched : VVD
towards : PRP
them : PNP
. : PUN
The : AT0
Director : NN1
waved : VVD
the : AT0
driver : NN1
to : TO0
stop : VVI
where : CJS
he : PNP
was : VBD
. : PUN
There : EX0
were : VBD
still : AV0
things : NN2
to : TO0
be : VBI
said : VVN
out : AVP
of : PRF
earshot : NN1
. : PUN
‘ : PUQ
But : CJC
he : PNP
has : VHZ
to : TO0
try : VVI
. : PUN
Just : AV0
like : VVB
we : PNP
do : VDB
. : PUN
And : CJC
, : PUN
I : PNP
suppose : VVB
, : PUN
the : AT0
Americans : NN2
. : PUN
It : PNP
was : VBD
easier : AJC
in : PRP
the : AT0
old : AJ0
days : NN2
. : PUN
We : PNP
knew : VVD
where : AVQ
we : PNP
were : VBD
. : PUN
Now : AV0
, : PUN
in : PRP
this : DT0
time : NN1
of : PRF
peace : NN1
, : PUN
it : PNP
's : VBZ
a : AT0
fragile : AJ0
trust : NN1
. : PUN
So : AV0
easy : AJ0
to : TO0
be : VBI
tested : VVN
and : CJC
broken : AJ0-VVN
. : PUN
I : PNP
hope : VVB
it : PNP
went : VVD
well : AV0
for : PRP
Dimitri : AJ0
Dimitrovitch : NN1-NP0
. : PUN
’ : PUQ
‘ : PUQ
His : DPS
report : NN1
should : VM0
be : VBI
ready : AJ0-AV0
when : CJS
I : PNP
get : VVB
back : AVP
. : PUN
’ : PUQ
‘ : PUQ
Was : VBD
it : PNP
wise : AJ0
to : TO0
tell : VVI
them : PNP
about : PRP
Bormann : NP0
? : PUN
’ : PUQ
‘ : PUQ
It : PNP
was : VBD
only : AV0
a : AT0
titbit : NN1
. : PUN
To : TO0
excite : VVI
them : PNP
. : PUN
’ : PUQ
‘ : PUQ
I : PNP
suppose : VVB
they : PNP
'll : VM0
think : VVI
we : PNP
have : VHB
Hitler : NP0
as : CJS
well : AV0
. : PUN
’ : PUQ
‘ : PUQ
Our : DPS
sources : NN2
always : AV0
reported : VVN-VVD
that : CJT
they : PNP
believed : VVD
Bormann : NP0
had : VHD
come : VVN
here : AV0
. : PUN
He : PNP
was : VBD
seen : VVN
by : PRP
that : DT0
general : NN1
's : POS
daughter : NN1
. : PUN
’ : PUQ
‘ : PUQ
He : PNP
was : VBD
seen : VVN
everywhere : AV0
. : PUN
Excellent : AJ0
misinformation : NN1
. : PUN
Now : AV0
that : CJT
they : PNP
know : VVB
about : PRP
the : AT0
money : NN1
, : PUN
there : EX0
is : VBZ
always : AV0
a : AT0
possibility : NN1
that : CJT
they : PNP
'll : VM0
tell : VVI
the : AT0
Germans : NN2
. : PUN
They : PNP
could : VM0
ask : VVI
for : PRP
its : DPS
return : NN1
. : PUN
’ : PUQ
‘ : PUQ
That : DT0
's : VBZ
between : PRP
them : PNP
and : CJC
the : AT0
Swiss : AJ0
Banks : NN2
. : PUN
What : DTQ
's : VBZ
left : VVN-AJ0
of : PRF
it : PNP
. : PUN
’ : PUQ
The : AT0
Director : NN1
laughed : VVD
. : PUN
‘ : PUQ
Not : XX0
much : AV0
. : PUN
It : PNP
all : DT0
helped : AJ0-VVD
fund : NN1
Stalin : NP0
's : POS
five-year : AJ0
plan : NN1
. : PUN
’ : PUQ
He : PNP
paused : VVD
, : PUN
then : AV0
turned : VVN-VVD
to : PRP
the : AT0
younger : AJC
man : NN1
. : PUN
‘ : PUQ
The : AT0
Lucy : NP0
Ghosts : NN2
. : PUN
It : PNP
's : VBZ
important : AJ0
they : PNP
do : VDB
n't : XX0
leave : VVI
Russia : NP0
. : PUN
Not : XX0
until : CJS
this : DT0
matter : NN1
is : VBZ
settled : VVN
. : PUN
’ : PUQ
‘ : PUQ
We : PNP
deported : VVD
over : AV0
thirty : CRD
thousand : CRD
Germans : NN2
after : PRP
the : AT0
war : NN1
. : PUN
It : PNP
's : VBZ
not : XX0
going : VVG
to : TO0
be : VBI
easy : AJ0
. : PUN
Not : XX0
in : PRP
this : DT0
time : NN1
of : PRF
perestroika : NN1
. : PUN
’ : PUQ
‘ : PUQ
I : PNP
know : VVB
. : PUN
I : PNP
know : VVB
. : PUN
But : CJC
Germany : NP0
has : VHZ
been : VBN
peaceful : AJ0
because : CJS
the : AT0
East : NP0
Prussians : NN2
were : VBD
under : PRP
our : DPS
control : NN1
. : PUN
You : PNP
know : VVB
… : PUN
as : CJS
I : PNP
do : VDB
… : PUN
that : CJT
the : AT0
Prussians : NN2
have : VHB
always : AV0
been : VBN
the : AT0
warmongers : NN2
. : PUN
We : PNP
can : VM0
not : XX0
allow : VVI
them : PNP
… : PUN
the : AT0
neo-Nazis : NN2
… : PUN
to : TO0
stir : VVI
up : AVP
trouble : NN1
. : PUN
Not : XX0
at : PRP
a : AT0
time : NN1
when : AVQ
the : AT0
rest : NN1
of : PRF
Germany : NP0
is : VBZ
in : PRP
turmoil : NN1
, : PUN
when : CJS-AVQ
the : AT0
economy : NN1
is : VBZ
struggling : VVG-AJ0
. : PUN
’ : PUQ
‘ : PUQ
Neo-Nazis : NN2
… : PUN
it : PNP
's : VBZ
in : PRP
the : AT0
Prussian : AJ0-NN1
's : POS
nature : NN1
. : PUN
That : DT0
wo : VM0
n't : XX0
change : VVI
, : PUN
however : AVQ
rich : AJ0
they : PNP
become : VVB
. : PUN
’ : PUQ
‘ : PUQ
Are : VBB
you : PNP
sure : AJ0
you : PNP
are : VBB
taking : VVG
the : AT0
right : AJ0-NN1
course : NN1
of : PRF
action : NN1
? : PUN
’ : PUQ
The : AT0
Director : NN1
could : VM0
n't : XX0
ask : VVI
what : DTQ
it : PNP
was : VBD
, : PUN
not : XX0
without : PRP
implicating : VVG
himself : PNX
if : CJS
it : PNP
went : VVD
wrong : AJ0
. : PUN
‘ : PUQ
Yes : ITJ
. : PUN
’ : PUQ
‘ : PUQ
And : CJC
if : CJS
it : PNP
fails : VVZ
? : PUN
’ : PUQ
‘ : PUQ
That : DT0
will : VM0
be : VBI
my : DPS
mistake : NN1
. : PUN
’ : PUQ
‘ : PUQ
It : PNP
's : VBZ
a : AT0
sad : AJ0
moment : NN1
when : AVQ
a : AT0
man : NN1
realizes : VVZ
he : PNP
is : VBZ
expendable : AJ0
. : PUN
’ : PUQ
‘ : PUQ
I : PNP
wo : VM0
n't : XX0
be : VBI
the : AT0
first : ORD
. : PUN
’ : PUQ
‘ : PUQ
No : ITJ
. : PUN
We : PNP
've : VHB
all : AV0
been : VBN
through : PRP
it : PNP
. : PUN
When : CJS
you : PNP
have : VHB
to : TO0
stand : VVI
by : PRP
your : DPS
own : DT0
actions : NN2
. : PUN
You : PNP
appreciate : VVB
why : AVQ
, : PUN
do : VDB
n't : XX0
you : PNP
? : PUN
’ : PUQ
‘ : PUQ
Yes : ITJ
. : PUN
Nothing : PNI
must : VM0
damage : VVI
the : AT0
relationship : NN1
between : PRP
us : PNP
and : CJC
the : AT0
West : NN1
. : PUN
’ : PUQ
‘ : PUQ
If : CJS
it : PNP
works : VVZ
, : PUN
nothing : PNI
will : VM0
ever : AV0
be : VBI
known : VVN
. : PUN
If : CJS
it : PNP
does : VDZ
n't : XX0
, : PUN
then : AV0
… : PUN
’ : PUQ
he : PNP
shrugged : VVD
. : PUN
They : PNP
both : DT0
knew : VVD
that : DT0-CJT
was : VBD
the : AT0
end : NN1
for : PRP
Rostov : NP0
. : PUN
The : AT0
Director : NN1
signalled : VVD
his : DPS
car : NN1
over : AVP
. : PUN
‘ : PUQ
Are : VBB
you : PNP
coming : VVG
back : AVP
with : PRP
me : PNP
? : PUN
’ : PUQ
‘ : PUQ
No : ITJ
, : PUN
sir : NN1
. : PUN
I : PNP
want : VVB
to : TO0
walk : VVI
. : PUN
It : PNP
's : VBZ
a : AT0
nice : AJ0
day : NN1
. : PUN
’ : PUQ
‘ : PUQ
To : PRP
church : NN1
? : PUN
’ : PUQ
‘ : PUQ
To : PRP
church : NN1
. : PUN
’ : PUQ
‘ : PUQ
Well : AV0
, : PUN
I : PNP
hope : VVB
He : PNP
can : VM0
help : VVI
where : AVQ
the : AT0
rest : NN1
of : PRF
the : AT0
KGB : NP0
ca : VM0
n't : XX0
. : PUN
’ : PUQ
The : AT0
old : AJ0
man : NN1
instantly : AV0
regretted : VVD-VVN
his : DPS
mocking : AJ0
answer : NN1
. : PUN
‘ : PUQ
Take : VVB
care : NN1
. : PUN
Come : VVB
and : CJC
see : VVB
me : PNP
when : CJS
you : PNP
're : VBB
back : AVP
. : PUN
With : PRP
Dimitri : NP0
Dimitrovitch : NP0-NN1
's : POS
report : NN1
. : PUN
’ : PUQ
Rostov : NP0
walked : VVD
out : AVP
of : PRF
the : AT0
Kremlin : NP0
, : PUN
past : PRP
the : AT0
KGB : NP0
guards : NN2-VVZ
with : PRP
their : DPS
blue-ribboned : AJ0
caps : NN2
, : PUN
and : CJC
along : PRP-AVP
the : AT0
river : NN1
. : PUN
He : PNP
mixed : VVD
with : PRP
the : AT0
tourists : NN2
and : CJC
other : AJ0
passers-by : NN2
, : PUN
enjoyed : VVD-VVN
being : VBG
nobody : PNI
in : PRP
a : AT0
bustling : AJ0
city : NN1
. : PUN
He : PNP
thought : VVD
of : PRF
the : AT0
action : NN1
he : PNP
had : VHD
instigated : VVN
. : PUN
He : PNP
knew : VVD
it : PNP
was : VBD
dangerous : AJ0
, : PUN
knew : VVD
that : CJT
his : DPS
only : AJ0
hope : NN1
was : VBD
to : TO0
flush : VVI
them : PNP
out : AVP
. : PUN
All : DT0
they : PNP
could : VM0
do : VDI
was : VBD
watch : NN1
and : CJC
wait : VVB-NN1
, : PUN
trigger : NN1-VVB
off : PRP-AVP
several : DT0
fuses : NN2
and : CJC
watch : VVB
them : PNP
burn : VVB-NN1
until : CJS-PRP
one : CRD
of : PRF
them : PNP
, : PUN
hopefully : AV0
, : PUN
ran : VVD
its : DPS
full : AJ0
course : NN1
. : PUN
His : DPS
instinct : NN1
told : VVD
him : PNP
the : AT0
Englishman : NN1
's : POS
disappearance : NN1
was : VBD
the : AT0
best : AJS
chance : NN1
. : PUN
He : PNP
was : VBD
n't : XX0
in : PRP
hiding : VVG
. : PUN
He : PNP
was : VBD
n't : XX0
the : AT0
type : NN1
. : PUN
He : PNP
was : VBD
after : CJS-PRP
something : PNI
. : PUN
He : PNP
could : VM0
be : VBI
their : DPS
salvation : NN1
. : PUN
He : PNP
would : VM0
pray : VVI
for : PRP
the : AT0
Englishman : NN1
's : POS
safety : NN1
. : PUN
He : PNP
needed : VVD
all : DT0
the : AT0
help : NN1
he : PNP
could : VM0
get : VVI
. : PUN
Dresdener : NP0-NN1
Heide : NP0
Dresden : NP0
The : AT0
AmTrak : NP0
Crescent : NP0
was : VBD
stopping : VVG
at : PRP
Culpeper : NP0
, : PUN
Virginia : NP0
, : PUN
when : CJS-AVQ
Peter : NP0
Frick : NP0
called : VVD
the : AT0
council : NN1
meeting : VVG-NN1
to : TO0
order : VVI
. : PUN
The : AT0
twelve : CRD
were : VBD
there : AV0
, : PUN
in : PRP
the : AT0
big : AJ0
room : NN1
that : CJT
had : VHD
once : AV0
served : VVN
as : PRP
a : AT0
dining : NN1
room : NN1
in : PRP
this : DT0
grand : AJ0
old : AJ0
house : NN1
. : PUN
Frick : NP0-NN1
sat : VVD
at : PRP
the : AT0
head : NN1
of : PRF
the : AT0
long : AJ0
table : NN1
, : PUN
in : PRP
his : DPS
rightful : AJ0
place : NN1
as : PRP
their : DPS
leader : NN1
. : PUN
Helmut : NP0
Kragan : NP0
sat : VVD
on : PRP-AVP
his : DPS
right : NN1
, : PUN
his : DPS
seat : NN1
away : AV0
from : PRP
the : AT0
table : NN1
, : PUN
as : CJS
befitted : VVD
the : AT0
recorder : NN1
of : PRF
minutes : NN2
who : PNQ
was : VBD
n't : XX0
a : AT0
council : NN1
member : NN1
. : PUN
‘ : PUQ
We : PNP
are : VBB
’ : PUQ
— : PUN
Frick : NP0
said : VVD
, : PUN
after : PRP
a : AT0
long : AJ0
pause : NN1
, : PUN
well : AV0
over : AV0
half : DT0
a : AT0
minute : NN1
, : PUN
until : CJS
he : PNP
was : VBD
certain : AJ0
he : PNP
had : VHD
everyone : PNI
's : POS
fullest : AJS
attention : NN1
— : PUN
‘ : PUQ
at : PRP
the : AT0
beginning : NN1
of : PRF
history : NN1
. : PUN
All : DT0
we : PNP
have : VHB
waited : VVN
for : PRP
is : VBZ
now : AV0
possible : AJ0
. : PUN
Germany : NP0
is : VBZ
divided : VVN-AJ0
. : PUN
Reunification : NN1
has : VHZ
resurrected : VVN
the : AT0
class : NN1
structure : NN1
, : PUN
not : XX0
based : VVN
on : PRP
background : NN1
, : PUN
but : CJC
on : PRP
wealth : NN1
. : PUN
The : AT0
haves : NN2
and : CJC
have : VHB
nots : NN2
. : PUN
That : DT0
is : VBZ
the : AT0
clay : NN1
we : PNP
work : VVB
with : PRP
. : PUN
It : PNP
is : VBZ
our : DPS
duty : NN1
, : PUN
as : PRP
National : AJ0
Socialists : NN2
, : PUN
to : TO0
unite : VVI
Germany : NP0
. : PUN
To : TO0
give : VVI
those : DT0
who : PNQ
have : VHB
, : PUN
the : AT0
security : NN1
to : TO0
keep : VVI
what : DTQ
they : PNP
have : VHB
earned : VVN
. : PUN
And : CJC
to : TO0
give : VVI
those : DT0
less : DT0
fortunate : AJ0
, : PUN
the : AT0
ability : NN1
to : TO0
lift : VVI
themselves : PNX
into : PRP
the : AT0
prosperity : NN1
that : CJT-DT0
is : VBZ
the : AT0
right : NN1
of : PRF
all : DT0
Germans : NN2
. : PUN
’ : PUQ
He : PNP
looked : VVD
round : PRP-AVP
the : AT0
room : NN1
slowly : AV0
at : PRP
the : AT0
other : AJ0-NN1
eleven : CRD
council : NN1
members : NN2
. : PUN
Karl : NP0
Schiller : NP0
sat : VVD
on : PRP-AVP
his : DPS
immediate : AJ0
left : AJ0-NN1
. : PUN
He : PNP
was : VBD
the : AT0
newest : AJS
member : NN1
of : PRF
the : AT0
council : NN1
, : PUN
hurriedly : AV0
elected : VVN
to : TO0
replace : VVI
Mitzer : NP0-NN1
in : PRP
a : AT0
series : NN0
of : PRF
anxious : AJ0
and : CJC
hushed : AJ0-VVD
telephone : NN1
calls : NN2-VVZ
. : PUN
He : PNP
was : VBD
an : AT0
investment : NN1
banker : NN1
and : CJC
financier : NN1
, : PUN
in : PRP
his : DPS
early : AJ0
fifties : CRD
, : PUN
with : PRP
contacts : NN2
and : CJC
influence : VVB-NN1
into : PRP
all : DT0
reaches : NN2
of : PRF
Industry : NN1
and : CJC
Government : NN1
. : PUN
A : AT0
new : AJ0
German : NN1
, : PUN
with : PRP
a : AT0
formidable : AJ0
international : AJ0
reputation : NN1
in : PRP
the : AT0
United : NP0
States : NP0
and : CJC
Japan : NP0
, : PUN
having : VHG
developed : VVN
, : PUN
through : PRP
his : DPS
investments : NN2
, : PUN
a : AT0
wide : AJ0
array : NN1
of : PRF
associates : NN2
in : PRP
the : AT0
upper : AJ0
echelons : NN2
of : PRF
those : DT0
countries : NN2
. : PUN
Frick : NP0-NN1
knew : VVD
that : CJT
Schiller : NP0
was : VBD
also : AV0
greedy : AJ0
. : PUN
His : DPS
family : NN1
had : VHD
owned : VVN
considerable : AJ0
estates : NN2
in : PRP
the : AT0
East : NN1
, : PUN
lost : VVN-VVD
after : PRP
the : AT0
First : ORD
World : NN1
War : NN1
when : AVQ
raging : AJ0-VVG
inflation : NN1
destroyed : VVD
his : DPS
grandfather : NN1
's : POS
estate : NN1
. : PUN
Lost : VVN
to : PRP
a : AT0
rich : AJ0
Jewish : AJ0
family : NN1
who : PNQ
were : VBD
eventually : AV0
to : TO0
die : VVI
in : PRP
the : AT0
concentration : NN1
camps : NN2-VVZ
after : CJS
Hitler : NP0
had : VHD
promised : VVN
to : TO0
return : VVI
the : AT0
estate : NN1
to : PRP
his : DPS
father : NN1
for : PRP
duties : NN2
performed : VVD-VVN
. : PUN
But : CJC
the : AT0
end : NN1
of : PRF
the : AT0
Second : ORD
World : NN1
War : NN1
and : CJC
the : AT0
separation : NN1
of : PRF
East : NP0
Germany : NP0
under : PRP
Russian : AJ0
control : NN1
brought : VVD
that : DT0
agreement : NN1
to : PRP
an : AT0
abrupt : AJ0
conclusion : NN1
. : PUN
As : CJS
soon : AV0
as : CJS
Reunification : NN1
came : VVD
about : AVP
, : PUN
Schiller : NP0
applied : VVD
for : PRP
the : AT0
return : NN1
of : PRF
his : DPS
family : NN1
's : POS
estates : NN2
. : PUN
He : PNP
was : VBD
horrified : AJ0
to : TO0
find : VVI
that : CJT
a : AT0
British : AJ0
grocery : NN1
family : NN1
, : PUN
close : AJ0
relatives : NN2
of : PRF
the : AT0
Jews : NN2
who : PNQ
had : VHD
taken : VVN
over : AVP
his : DPS
lands : NN2
, : PUN
had : VHD
title : NN1
to : PRP
the : AT0
property : NN1
. : PUN
The : AT0
will : NN1
that : CJT
gave : VVD
them : PNP
title : NN1
had : VHD
been : VBN
written : VVN
on : PRP
a : AT0
torn-out : AJ0
page : NN1
of : PRF
a : AT0
1938 : CRD
diary : NN1
, : PUN
the : AT0
only : AJ0
paper : NN1
available : AJ0
when : CJS
the : AT0
family : NN1
learnt : VVD
of : PRF
their : DPS
imminent : AJ0
fate : NN1
in : PRP
the : AT0
gas : NN1
chamber : NN1
. : PUN
The : AT0
estate : NN1
had : VHD
been : VBN
willed : VVN
to : PRP
another : DT0
prisoner : NN1
, : PUN
a : AT0
distant : AJ0
cousin : NN1
, : PUN
on : PRP
the : AT0
clear : AJ0
understanding : NN1
that : CJT
should : VM0
it : PNP
ever : AV0
be : VBI
returned : VVN
to : PRP
Jewish : AJ0
hands : NN2
, : PUN
the : AT0
monies : NN2
and : CJC
profits : NN2
taken : VVN
from : PRP
it : PNP
would : VM0
be : VBI
devoted : VVN-AJ0
to : PRP
the : AT0
creation : NN1
of : PRF
a : AT0
Zionist : AJ0
state : NN1
. : PUN
The : AT0
estate : NN1
itself : PNX
was : VBD
to : TO0
be : VBI
used : VVN
for : PRP
the : AT0
well-being : NN1
of : PRF
those : DT0
Jews : NN2
who : PNQ
had : VHD
also : AV0
suffered : VVN
at : PRP
the : AT0
hands : NN2
of : PRF
the : AT0
Nazis : NN2
and : CJC
other : AJ0
oppressors : NN2
of : PRF
the : AT0
faith : NN1
. : PUN
Schiller : NP0
now : AV0
found : VVD
himself : PNX
fighting : VVG
those : DT0
whom : PNQ
his : DPS
father : NN1
had : VHD
always : AV0
taught : VVN
him : PNP
were : VBD
responsible : AJ0
for : PRP
the : AT0
break-up : NN1
of : PRF
Germany : NP0
and : CJC
all : DT0
she : PNP
had : VHD
stood : VVN
for : PRP
. : PUN
They : PNP
were : VBD
thieves : NN2
, : PUN
and : CJC
once : AV0
again : AV0
they : PNP
would : VM0
be : VBI
stealing : VVG
the : AT0
land : NN1
that : CJT-DT0
was : VBD
not : XX0
theirs : PNP
, : PUN
the : AT0
land : NN1
and : CJC
estates : NN2
that : CJT
were : VBD
Karl : NP0
Schiller : NP0
's : VBZ
by : PRP
right : NN1
of : PRF
inheritance : NN1
. : PUN
He : PNP
had : VHD
been : VBN
a : AT0
keen : AJ0
and : CJC
willing : AJ0
convert : NN1
to : PRP
the : AT0
cause : NN1
, : PUN
his : DPS
hatred : NN1
fuelled : VVN
by : PRP
Grob : NP0
Mitzer : NP0-NN1
whom : PNQ
he : PNP
knew : VVD
and : CJC
trusted : VVD
as : PRP
a : AT0
friend : NN1
and : CJC
corporate : AJ0
colleague : NN1
. : PUN
Over : PRP
the : AT0
past : AJ0-NN1
few : DT0
years : NN2
, : PUN
he : PNP
had : VHD
helped : VVN
fund : VVI
the : AT0
Party : NN1
, : PUN
had : VHD
worked : VVN
closely : AV0
with : PRP
Mitzer : NP0-NN1
in : PRP
building : VVG
a : AT0
financial : AJ0
base : NN1
from : PRP
which : DTQ
their : DPS
dreams : NN2
of : PRF
a : AT0
new : AJ0
Germany : NP0
could : VM0
be : VBI
launched : VVN
. : PUN
Mitzer : NP0-NN1
's : POS
death : NN1
had : VHD
stunned : VVN
him : PNP
, : PUN
but : CJC
not : XX0
for : PRP
too : AV0
long : AV0-AJ0
. : PUN
Within : PRP
half : DT0
an : AT0
hour : NN1
he : PNP
had : VHD
contacted : VVN
those : DT0
he : PNP
trusted : VVD
on : PRP
the : AT0
council : NN1
and : CJC
given : VVN
a : AT0
good : AJ0
account : NN1
as : CJS
to : PRP
why : AVQ
he : PNP
should : VM0
fill : VVI
the : AT0
vacant : AJ0
seat : NN1
. : PUN
His : DPS
last : ORD
call : NN1
had : VHD
been : VBN
to : PRP
Frick : NP0
, : PUN
the : AT0
man : NN1
he : PNP
knew : VVD
that : CJT
he : PNP
must : VM0
convince : VVI
. : PUN
‘ : PUQ
I : PNP
had : VHD
n't : XX0
considered : VVN
you : PNP
ready : AJ0
for : PRP
the : AT0
council : NN1
yet : AV0
, : PUN
’ : PUQ
said : VVD
Frick : NP0
, : PUN
when : CJS-AVQ
Schiller : NP0
had : VHD
finished : VVN
. : PUN
He : PNP
lied : VVD
, : PUN
for : CJS
the : AT0
financier : NN1
was : VBD
the : AT0
obvious : AJ0
choice : NN1
. : PUN
He : PNP
knew : VVD
Schiller : NP0
's : POS
history : NN1
, : PUN
knew : VVD
his : DPS
greed : NN1
for : PRP
what : DTQ
he : PNP
felt : VVD
was : VBD
rightfully : AV0
his : PNP
, : PUN
knew : VVD
of : PRF
his : DPS
birthright : NN1
hatred : NN1
of : PRF
the : AT0
Jews : NN2
. : PUN
They : PNP
had : VHD
known : VVN
each : DT0
other : NN1
for : PRP
some : DT0
considerable : AJ0
time : NN1
and : CJC
Frick : NP0
trusted : VVD
Schiller : NP0
as : AV0
much : DT0
as : CJS
he : PNP
could : VM0
trust : VVI
any : DT0
man : NN1
. : PUN
Schiller : NP0
had : VHD
pleaded : VVN
, : PUN
once : AV0
again : AV0
going : VVG
through : PRP
the : AT0
many : DT0
reasons : NN2
why : AVQ
it : PNP
was : VBD
right : AJ0
for : PRP
him : PNP
to : TO0
gain : VVI
a : AT0
seat : NN1
on : PRP
the : AT0
council : NN1
. : PUN
Then : AV0
he : PNP
pledged : VVD
loyalty : NN1
to : PRP
Frick : NP0
and : CJC
to : PRP
his : DPS
leadership : NN1
. : PUN
When : CJS
he : PNP
had : VHD
begged : VVN
enough : AV0
, : PUN
when : CJS
there : EX0
was : VBD
nothing : PNI
else : AV0
to : TO0
repeat : VVI
, : PUN
Frick : NP0
had : VHD
appeared : VVN
to : TO0
surrender : VVI
to : PRP
Schiller : NP0
's : POS
request : NN1
. : PUN
That : DT0
would : VM0
guarantee : VVI
the : AT0
financier : NN1
's : POS
loyalty : NN1
. : PUN
‘ : PUQ
When : CJS
we : PNP
come : VVB
to : PRP
power : NN1
, : PUN
my : DPS
dear : AJ0-NN1
Schiller : NP0
, : PUN
’ : PUQ
Frick : NP0
had : VHD
concluded : VVN
, : PUN
‘ : PUQ
we : PNP
shall : VM0
return : VVI
what : DTQ
is : VBZ
rightfully : AV0
theirs : PNP
to : PRP
those : DT0
who : PNQ
have : VHB
supported : VVN
us : PNP
. : PUN
That : DT0
is : VBZ
the : AT0
least : AV0
we : PNP
can : VM0
do : VDI
. : PUN
’ : PUQ
Over : PRP
the : AT0
phone : NN1
he : PNP
sensed : VVD
Schiller : NP0
's : POS
shiver : NN1
of : PRF
anticipation : NN1
. : PUN
Now : AV0
Frick : NP0
continued : VVD
his : DPS
scrutiny : NN1
of : PRF
the : AT0
room : NN1
. : PUN
He : PNP
paused : VVD
at : PRP
Klaus : NP0
Buhle : NP0
, : PUN
the : AT0
Frankfurt : NP0
Daily : NP0
News : NN1
proprietor : NN1
and : CJC
television-station : AJ0
owner : NN1
. : PUN
More : DT0
pressure : NN1
would : VM0
have : VHI
to : TO0
be : VBI
applied : VVN
in : PRP
that : DT0
area : NN1
, : PUN
before : CJS
the : AT0
newspapers : NN2
started : VVD
to : TO0
look : VVI
in : PRP
the : AT0
direction : NN1
of : PRF
the : AT0
National : AJ0
Socialists : NN2
. : PUN
Buhle : NN1-NP0
must : VM0
point : VVI
the : AT0
finger : NN1
at : PRP
the : AT0
other : AJ0
radical : AJ0-NN1
groups : NN2
. : PUN
Other : AJ0
newspapers : NN2
would : VM0
follow : VVI
his : DPS
example : NN1
, : PUN
the : AT0
media : NN0
was : VBD
well : AV0
known : VVN
for : PRP
its : DPS
sheep-like : AJ0
character : NN1
. : PUN
‘ : PUQ
But : CJC
, : PUN
’ : PUQ
Frick : NP0
went : VVD
on : AVP
, : PUN
‘ : PUQ
if : CJS
we : PNP
are : VBB
to : TO0
take : VVI
our : DPS
rightful : AJ0
place : NN1
in : PRP
history : NN1
, : PUN
then : AV0
it : PNP
's : VBZ
time : NN1
we : PNP
came : VVD
out : AVP
of : PRF
the : AT0
woodwork : NN1
. : PUN
’ : PUQ
He : PNP
paused : VVD
, : PUN
sensed : VVD
their : DPS
uneasiness : NN1
. : PUN
They : PNP
were : VBD
used : AJ0
to : PRP
working : VVG
in : PRP
the : AT0
dark : NN1-AJ0
; : PUN
they : PNP
had : VHD
become : VVN
a : AT0
secret : AJ0
society : NN1
. : PUN
They : PNP
had : VHD
sat : VVN
with : PRP
their : DPS
friends : NN2
and : CJC
heard : VVD
the : AT0
vilification : NN1
of : PRF
Hitler : NP0
and : CJC
the : AT0
Third : ORD
Reich : NP0
at : PRP
dinner : NN1
parties : NN2
, : PUN
in : PRP
the : AT0
cinemas : NN2
, : PUN
on : PRP
television : NN1
and : CJC
in : PRP
books : NN2
and : CJC
newspapers : NN2
. : PUN
Nazi-hating : NN1
had : VHD
become : VVN
big : AJ0
business : NN1
. : PUN
And : CJC
they : PNP
had : VHD
kept : VVN
their : DPS
counsel : NN1
, : PUN
never : AV0
spoken : VVN
out : AVP
about : PRP
their : DPS
own : DT0
beliefs : NN2
. : PUN
And : CJC
now : AV0
they : PNP
were : VBD
being : VBG
asked : VVN
to : TO0
come : VVI
out : AVP
in : PRP
the : AT0
open : NN1
. : PUN
He : PNP
felt : VVD
them : PNP
shudder : VVI
; : PUN
they : PNP
were : VBD
in : PRP
the : AT0
tunnel : NN1
and : CJC
the : AT0
thunder : NN1
of : PRF
the : AT0
oncoming : AJ0
express : AJ0
train : NN1
was : VBD
rattling : VVG
the : AT0
rails : NN2
. : PUN
‘ : PUQ
We : PNP
have : VHB
nothing : PNI
to : TO0
be : VBI
ashamed : AJ0
of : PRF
, : PUN
’ : PUQ
he : PNP
stated : VVD
, : PUN
clinical : AJ0
in : PRP
his : DPS
delivery : NN1
. : PUN
Now : AV0
was : VBD
not : XX0
the : AT0
time : NN1
for : PRP
emotion : NN1
, : PUN
but : CJC
for : PRP
logic : NN1
. : PUN
‘ : PUQ
We : PNP
ca : VM0
n't : XX0
always : AV0
apologize : VVI
for : PRP
the : AT0
past : NN1
. : PUN
Germany : NP0
has : VHZ
moved : VVN
forward : AV0
. : PUN
If : CJS
we : PNP
're : VBB
not : XX0
careful : AJ0
, : PUN
we : PNP
will : VM0
always : AV0
be : VBI
looked : VVN
on : AVP
as : CJS
yesterday : AV0
's : POS
men : NN2
. : PUN
’ : PUQ
He : PNP
stood : VVD
up : AVP
, : PUN
aware : AJ0
of : PRF
them : PNP
all : DT0
watching : VVG
him : PNP
. : PUN
They : PNP
were : VBD
scared : AJ0
men : NN2
, : PUN
even : AV0
Schiller : NP0
was : VBD
ramrod : NN1
straight : AV0
in : PRP
his : DPS
seat : NN1
. : PUN
What : DTQ
the : AT0
hell : NN1
had : VHD
they : PNP
expected : VVN
, : PUN
after : PRP
all : DT0
these : DT0
years : NN2
? : PUN
‘ : PUQ
It : PNP
's : VBZ
easy : AJ0
to : TO0
be : VBI
frightened : AJ0
, : PUN
’ : PUQ
Frick : NP0
said : VVD
as : CJS
he : PNP
walked : VVD
round : PRP-AVP
the : AT0
table : NN1
, : PUN
behind : PRP
them : PNP
, : PUN
their : DPS
eyes : NN2
following : VVG
him : PNP
. : PUN
‘ : PUQ
I : PNP
, : PUN
also : AV0
, : PUN
am : VBB
frightened : AJ0
. : PUN
But : CJC
we : PNP
must : VM0
n't : XX0
let : VVI
our : DPS
fear : NN1
overcome : VVI
our : DPS
purpose : NN1
, : PUN
our : DPS
duty : NN1
. : PUN
There : EX0
have : VHB
been : VBN
far : AV0
greater : AJC
forces : NN2
of : PRF
darkness : NN1
in : PRP
our : DPS
land : NN1
than : CJS
the : AT0
Third : ORD
Reich : NP0
. : PUN
The : AT0
Americans : NN2
, : PUN
the : AT0
British : AJ0
, : PUN
the : AT0
French : NN1
. : PUN
Even : AV0
the : AT0
poodle : NN1
French : NN1
. : PUN
They : PNP
told : VVD
us : PNP
how : AVQ
to : TO0
live : VVI
our : DPS
lives : NN2
, : PUN
occupied : VVD
us : PNP
until : CJS
we : PNP
lived : VVD
our : DPS
life : NN1
their : DPS
way : NN1
. : PUN
Whatever : DTQ
nice : AJ0
things : NN2
they : PNP
said : VVD
to : PRP
our : DPS
face : NN1
, : PUN
they : PNP
always : AV0
had : VHD
their : DPS
troops : NN2
in : PRP
the : AT0
background : NN1
, : PUN
on : PRP
our : DPS
soil : NN1
, : PUN
waiting : VVG
to : TO0
beat : VVI
us : PNP
if : CJS
we : PNP
suddenly : AV0
changed : VVD-VVN
our : DPS
minds : NN2
. : PUN
And : CJC
we : PNP
had : VHD
the : AT0
Russians : NN2
. : PUN
They : PNP
hid : VVD
their : DPS
dark : AJ0-NN1
deeds : NN2
behind : PRP
the : AT0
Wall : NN1
. : PUN
But : CJC
they : PNP
still : AV0
raped : VVD
our : DPS
country : NN1
, : PUN
disgraced : VVD
us : PNP
, : PUN
pissed : VVD-AJ0
all : AV0
over : PRP
us : PNP
for : PRP
the : AT0
crimes : NN2
of : PRF
fifty : CRD
years : NN2
ago : AV0
. : PUN
And : CJC
, : PUN
however : AVQ
bad : AJ0-AV0
their : DPS
crimes : NN2
against : PRP
us : PNP
were : VBD
, : PUN
they : PNP
always : AV0
justified : VVN
them : PNP
by : PRP
saying : VVG-NN1
ours : PNP
were : VBD
worse : AJC
. : PUN
We : PNP
became : VVD
two : CRD
countries : NN2
. : PUN
Two : CRD
countries : NN2
, : PUN
until : CJS
the : AT0
will : NN1
of : PRF
the : AT0
people : NN0
decided : VVD
we : PNP
'd : VHD
had : VHN
enough : DT0
and : CJC
they : PNP
went : VVD
out : AVP
in : PRP
their : DPS
hundreds : CRD
of : PRF
thousands : CRD
and : CJC
pulled : VVD
the : AT0
Wall : NN1
down : AVP
. : PUN
With : PRP
their : DPS
hands : NN2
. : PUN
Like : VVB
I : PNP
did : VDD
. : PUN
On : PRP
that : DT0
great : AJ0
night : NN1
, : PUN
I : PNP
stood : VVD
with : PRP
them : PNP
and : CJC
chipped : VVD-VVN
away : AV0
with : PRP
my : DPS
bare : AJ0
hands : NN2
, : PUN
until : CJS
my : DPS
fingers : NN2
were : VBD
bleeding : VVG-AJ0
, : PUN
to : TO0
bring : VVI
down : AVP
that : DT0
iniquitous : AJ0
wall : NN1
. : PUN
But : CJC
, : PUN
like : PRP
Nietzsche : NP0
said : VVD
, : PUN
no : AT0
herdsman : NN1
and : CJC
one : CRD
herd : NN1
. : PUN
They : PNP
have : VHB
earned : VVN
their : DPS
freedom : NN1
and : CJC
do : VDB
n't : XX0
know : VVI
how : AVQ
to : TO0
spend : VVI
it : PNP
. : PUN
Our : DPS
people : NN0
need : VVB
direction : NN1
. : PUN
And : CJC
while : CJS
they : PNP
're : VBB
looking : VVG
for : PRP
that : DT0
direction : NN1
, : PUN
they : PNP
are : VBB
vulnerable : AJ0
. : PUN
Vulnerable : AJ0
to : PRP
the : AT0
rabble : NN1
rousers : NN2
, : PUN
to : PRP
the : AT0
Communists : NN2
, : PUN
to : PRP
the : AT0
Fascists : NN2
, : PUN
even : AV0
to : PRP
the : AT0
hated : AJ0
Zionists : NN2
. : PUN
You : PNP
've : VHB
seen : VVN
the : AT0
riots : NN2
in : PRP
Berlin : NP0
, : PUN
the : AT0
destruction : NN1
of : PRF
the : AT0
synagogues : NN2
, : PUN
even : AV0
the : AT0
bomb : NN1
that : CJT
killed : VVD
Grob : NP0
Mitzer : NP0
. : PUN
Surely : AV0
his : DPS
death : NN1
must : VM0
show : VVI
you : PNP
that : CJT
we : PNP
ca : VM0
n't : XX0
stay : VVI
hidden : VVN-AJ0
any : AV0
longer : AV0
. : PUN
That : CJT
it : PNP
is : VBZ
time : NN1
for : PRP
us : PNP
to : TO0
take : VVI
our : DPS
rightful : AJ0
place : NN1
. : PUN
Time : NN1
for : PRP
us : PNP
to : TO0
be : VBI
the : AT0
herdsmen : NN2
. : PUN
We : PNP
have : VHB
the : AT0
means : NN0
. : PUN
We : PNP
even : AV0
have : VHB
our : DPS
own : DT0
secret : AJ0-NN1
police : NN2
. : PUN
The : AT0
Stasi : NP0
, : PUN
Honecker : NP0
's : POS
secret : AJ0-NN1
police : NN2
, : PUN
have : VHB
been : VBN
good : AJ0
Sturmabteilungen : NN1
for : PRP
us : PNP
. : PUN
An : AT0
army : NN1
of : PRF
men : NN2
with : PRP
nowhere : AV0
to : TO0
go : VVI
. : PUN
’ : PUQ
As : CJS
he : PNP
looked : VVD
round : AVP
, : PUN
he : PNP
saw : VVD
that : CJT
his : DPS
words : NN2
were : VBD
starting : VVG
to : TO0
have : VHI
some : DT0
effect : NN1
. : PUN
One : CRD
or : CJC
two : CRD
of : PRF
the : AT0
older : AJC
members : NN2
were : VBD
nodding : VVG
in : PRP
agreement : NN1
. : PUN
They : PNP
had : VHD
waited : VVN
for : PRP
so : AV0
long : AJ0-AV0
that : CJT
some : DT0
of : PRF
them : PNP
had : VHD
forgotten : VVN
what : DTQ
they : PNP
were : VBD
waiting : VVG
for : PRP
. : PUN
‘ : PUQ
Do : VDB
you : PNP
know : VVI
how : AVQ
many : DT0
Stasi : NP0
members : NN2
there : EX0
were : VBD
? : PUN
’ : PUQ
he : PNP
asked : VVD
suddenly : AV0
. : PUN
‘ : PUQ
Do : VDB
you : PNP
? : PUN
’ : PUQ
‘ : PUQ
More : AV0
than : CJS
twenty : CRD
thousand : CRD
, : PUN
mein : UNC
Fuhrer : UNC
, : PUN
’ : PUQ
said : VVD
Buhle : NP0
, : PUN
putting : VVG
himself : PNX
at : PRP
the : AT0
top : NN1
of : PRF
the : AT0
class : NN1
. : PUN
‘ : PUQ
More : DT0
than : CJS
that : DT0
, : PUN
my : DPS
dear : AJ0-NN1
Klaus : NP0
. : PUN
That : DT0
's : VBZ
how : AVQ
many : DT0
full-time : AJ0
staff : NN0
there : EX0
were : VBD
. : PUN
There : EX0
were : VBD
another : DT0
ninety : CRD
thousand : CRD
part-timers : NN2
. : PUN
Members : NN2
of : PRF
the : AT0
reserves : NN2
, : PUN
the : AT0
Army : NN1
, : PUN
informers : NN2
and : CJC
part-time : AJ0
officials : NN2
. : PUN
Imagine : VVB
. : PUN
We : PNP
have : VHB
an : AT0
army : NN1
of : PRF
more : AV0
than : CJS
one : CRD
hundred : CRD
thousand : CRD
trained : AJ0
soldiers : NN2
to : TO0
choose : VVI
from : PRP
. : PUN
That : DT0
is : VBZ
bigger : AJC
than : CJS
the : AT0
whole : AJ0
British : AJ0
army : NN1
. : PUN
Not : XX0
all : DT0
will : VM0
come : VVI
with : PRP
us : PNP
. : PUN
But : CJC
even : AV0
if : CJS
only : AV0
one : CRD-PNI
in : PRP
four : CRD
follows : VVZ
us : PNP
, : PUN
we : PNP
will : VM0
have : VHI
nearly : AV0
thirty : CRD
thousand : CRD
people : NN0
under : PRP
our : DPS
command : NN1
. : PUN
’ : PUQ
‘ : PUQ
A : AT0
unique : AJ0
position : NN1
, : PUN
’ : PUQ
commented : VVD
Buhle : NP0
. : PUN
‘ : PUQ
Unique : AJ0
indeed : AV0
. : PUN
To : TO0
have : VHI
that : DT0
and : CJC
also : AV0
face : VVB
a : AT0
Germany : NP0
which : DTQ
is : VBZ
being : VBG
torn : VVN
apart : AV0
. : PUN
It : PNP
must : VM0
have : VHI
been : VBN
the : AT0
same : DT0
in : PRP
the : AT0
early : AJ0
days : NN2
of : PRF
the : AT0
Reich : NP0
. : PUN
’ : PUQ
He : PNP
appealed : VVD
to : PRP
their : DPS
greed : NN1
for : PRP
power : NN1
. : PUN
‘ : PUQ
Imagine : VVB
. : PUN
The : AT0
day : NN1
he : PNP
came : VVD
to : PRP
power : NN1
. : PUN
’ : PUQ
They : PNP
all : DT0
knew : VVD
who : PNQ
‘ : PUQ
he : PNP
’ : PUQ
was : VBD
. : PUN
‘ : PUQ
Imagine : VVB
. : PUN
After : PRP
all : DT0
the : AT0
turmoil : NN1
, : PUN
after : PRP
[...]
With : PRP
her : DPS
tongue : NN1
she : PNP
tried : VVD
to : TO0
wash : VVI
off : PRP-AVP
the : AT0
blood : NN1
that : CJT
covered : VVD
him : PNP
. : PUN
It : PNP
seemed : VVD
to : TO0
work : VVI
; : PUN
her : DPS
saliva : NN1
and : CJC
dampness : NN1
helped : VVD
his : DPS
body : NN1
fight : VVI
the : AT0
damage : NN1
. : PUN
She : PNP
did : VDD
that : DT0
for : PRP
half : DT0
an : AT0
hour : NN1
and : CJC
he : PNP
only : AV0
came : VVD
round : AVP
for : PRP
a : AT0
short : AJ0
time : NN1
. : PUN
She : PNP
did : VDD
n't : XX0
catch : VVI
what : DTQ
he : PNP
said : VVD
— : PUN
his : DPS
words : NN2
too : AV0
soft : AJ0
and : CJC
indistinct : AJ0
— : PUN
but : CJC
his : DPS
half-grin : NN1
told : VVD
her : PNP
it : PNP
had : VHD
smutty : AJ0
connotations : NN2
. : PUN
God : NP0
knows : VVZ
what : DTQ
he : PNP
thought : VVD
in : PRP-AVP
his : DPS
dream : NN1
world : NN1
as : CJS
he : PNP
watched : VVD
her : PNP
licking : VVG
his : DPS
body : NN1
. : PUN
The : AT0
second : ORD
time : NN1
he : PNP
came : VVD
round : AVP
, : PUN
he : PNP
suddenly : AV0
pulled : VVD-VVN
himself : PNX
up : AVP
into : PRP
a : AT0
sitting : NN1
position : NN1
. : PUN
She : PNP
could : VM0
see : VVI
him : PNP
trying : VVG
to : TO0
concentrate : VVI
, : PUN
trying : VVG
to : TO0
control : VVI
his : DPS
mind : NN1
and : CJC
body : NN1
, : PUN
trying : VVG
to : TO0
focus : VVI
. : PUN
She : PNP
moved : VVD
away : AV0
, : PUN
left : VVD
him : PNP
in : PRP
the : AT0
corner : NN1
of : PRF
the : AT0
room : NN1
and : CJC
stayed : VVD
where : AVQ-CJS
he : PNP
could : VM0
see : VVI
her : PNP
clearly : AV0
. : PUN
‘ : PUQ
No : AT0
danger : NN1
, : PUN
’ : PUQ
she : PNP
said : VVD
. : PUN
‘ : PUQ
Where : AVQ
are : VBB
we : PNP
? : PUN
’ : PUQ
He : PNP
spoke : VVD
painfully : AV0
and : CJC
slowly : AV0
. : PUN
‘ : PUQ
Somewhere : AV0
in : PRP
their : DPS
camp : NN1
. : PUN
’ : PUQ
She : PNP
cursed : VVD
herself : PNX
for : PRP
stating : VVG
the : AT0
obvious : AJ0
, : PUN
wished : VVD
she : PNP
had : VHD
taken : VVN
more : DT0
note : NN1
of : PRF
where : AVQ
they : PNP
had : VHD
brought : VVN
her : PNP
. : PUN
‘ : PUQ
I : PNP
'm : VBB
sorry : AJ0
. : PUN
I : PNP
do : VDB
n't : XX0
… : PUN
’ : PUQ
She : PNP
stopped : VVD
, : PUN
her : DPS
inadequacy : NN1
confused : VVN
with : PRP
her : DPS
compassion : NN1
for : PRP
him : PNP
. : PUN
He : PNP
looked : VVD
so : AV0
vulnerable : AJ0
, : PUN
so : AV0
damaged : VVN
. : PUN
‘ : PUQ
I : PNP
'm : VBB
all : AV0
right : AJ0
. : PUN
’ : PUQ
He : PNP
understood : VVD
her : DPS
feelings : NN2
and : CJC
tried : VVD
to : TO0
reassure : VVI
her : PNP
. : PUN
‘ : PUQ
Have : VHB
you : PNP
been : VBN
here : AV0
all : DT0
the : AT0
time : NN1
? : PUN
’ : PUQ
‘ : PUQ
Yes : ITJ
. : PUN
’ : PUQ
‘ : PUQ
And : CJC
nothing : PNI
happened : VVD
? : PUN
’ : PUQ
‘ : PUQ
Nothing : PNI
. : PUN
They : PNP
just : AV0
stuck : VVD
me : PNP
in : PRP
here : AV0
. : PUN
I : PNP
've : VHB
seen : VVN
no-one : PNI
. : PUN
’ : PUQ
He : PNP
nodded : VVD
, : PUN
relieved : VVD
that : CJT
they : PNP
had : VHD
left : VVN
her : PNP
alone : AJ0
although : CJS
he : PNP
knew : VVD
this : DT0
business : NN1
had : VHD
only : AV0
just : AV0
started : VVN
. : PUN
‘ : PUQ
What : DTQ
have : VHB
they : PNP
done : VDN
to : PRP
you : PNP
? : PUN
’ : PUQ
she : PNP
asked : VVD
, : PUN
now : AV0
unable : AJ0
to : TO0
hide : VVI
her : DPS
concern : NN1
any : AV0
longer : AV0
, : PUN
the : AT0
tears : NN2
starting : VVG
to : TO0
flow : VVI
. : PUN
‘ : PUQ
Hey : ITJ
. : PUN
Come : VVB
on : AVP
. : PUN
Take : VVB
it : PNP
easy : AJ0-AV0
. : PUN
’ : PUQ
He : PNP
moved : VVD
towards : PRP
her : PNP
, : PUN
his : DPS
hands : NN2
held : VVD-VVN
out : AVP
. : PUN
‘ : PUQ
No : ITJ
, : PUN
’ : PUQ
she : PNP
blurted : VVD
out : AVP
, : PUN
not : XX0
wanting : VVG
him : PNP
to : TO0
move : VVI
, : PUN
not : XX0
wanting : VVG
him : PNP
to : TO0
hurt : VVI
himself : PNX
. : PUN
‘ : PUQ
No : ITJ
. : PUN
Keep : VVB
still : AJ0
. : PUN
’ : PUQ
‘ : PUQ
Really : AV0
, : PUN
I : PNP
'm : VBB
OK : AJ0
. : PUN
’ : PUQ
He : PNP
tried : VVD
to : TO0
reassure : VVI
her : PNP
, : PUN
but : CJC
the : AT0
pain : NN1
was : VBD
obvious : AJ0
. : PUN
He : PNP
slumped : VVD
back : AVP
into : PRP
the : AT0
corner : NN1
. : PUN
They : PNP
said : VVD
nothing : PNI
for : PRP
a : AT0
while : NN1
; : PUN
she : PNP
controlling : VVG
her : DPS
emotions : NN2
while : CJS
he : PNP
gathered : VVD
his : DPS
strength : NN1
. : PUN
‘ : PUQ
What : DTQ
sort : NN1
of : PRF
building : NN1
is : VBZ
this : DT0
? : PUN
’ : PUQ
he : PNP
asked : VVD
eventually : AV0
. : PUN
‘ : PUQ
How : AVQ
do : VDB
you : PNP
mean : VVI
? : PUN
’ : PUQ
‘ : PUQ
Is : VBZ
it : PNP
in : PRP-AVP
a : AT0
big : AJ0
complex : NN1
? : PUN
’ : PUQ
‘ : PUQ
No : ITJ
. : PUN
It : PNP
's : VBZ
in : PRP
the : AT0
trees : NN2
. : PUN
’ : PUQ
‘ : PUQ
Brick : NN1
or : CJC
wooden : AJ0
? : PUN
’ : PUQ
‘ : PUQ
Wooden : AJ0
. : PUN
’ : PUQ
‘ : PUQ
Like : PRP
a : AT0
big : AJ0
Swiss : AJ0
chalet : NN1
? : PUN
’ : PUQ
‘ : PUQ
Yes : ITJ
. : PUN
’ : PUQ
‘ : PUQ
I : PNP
know : VVB
it : PNP
. : PUN
’ : PUQ
He : PNP
did : VDD
n't : XX0
tell : VVI
her : PNP
that : CJT
they : PNP
had : VHD
brought : VVN
him : PNP
here : AV0
unconscious : AJ0
after : PRP
torturing : VVG
him : PNP
in : PRP
the : AT0
main : AJ0
building : NN1
. : PUN
He : PNP
did : VDD
n't : XX0
tell : VVI
her : PNP
how : AVQ
they : PNP
had : VHD
beaten : VVN
him : PNP
with : PRP
plastic : NN1
tubes : NN2
filled : VVN
with : PRP
sand : NN1
so : AV0
that : CJT
he : PNP
would : VM0
hurt : VVI
and : CJC
bruise : VVI
without : PRP
breaking : VVG
his : DPS
bones : NN2
. : PUN
Or : CJC
how : AVQ
they : PNP
had : VHD
inflicted : VVN
cuts : NN2-VVZ
with : PRP
a : AT0
small : AJ0
sharp : AJ0
knife : NN1
, : PUN
then : AV0
sprinkled : VVD-VVN
salt : NN1
into : PRP
the : AT0
wounds : NN2
and : CJC
kicked : VVD
him : PNP
round : PRP-AVP
the : AT0
room : NN1
so : CJS
he : PNP
had : VHD
to : TO0
twist : VVI
sharply : AV0
and : CJC
feel : VVI
the : AT0
pain : NN1
of : PRF
the : AT0
salt : NN1
crystals : NN2
in : PRP
the : AT0
raw : AJ0
open : AJ0
flesh : NN1
. : PUN
They : PNP
had : VHD
hosed : VVN
him : PNP
down : AVP
after : PRP
that : DT0
, : PUN
then : AV0
poured : VVD-VVN
urine : NN1
over : PRP
him : PNP
. : PUN
The : AT0
next : ORD
time : NN1
he : PNP
awoke : VVD
, : PUN
they : PNP
blistered : VVD
the : AT0
back : NN1
of : PRF
his : DPS
hands : NN2
with : PRP
cigarette : NN1
burns : NN2-VVZ
, : PUN
but : CJC
this : DT0
time : NN1
, : PUN
mercifully : AV0
, : PUN
he : PNP
had : VHD
passed : VVN
out : AVP
within : PRP
ten : CRD
minutes : NN2
and : CJC
did : VDD
n't : XX0
regain : VVI
his : DPS
senses : NN2
for : PRP
nearly : AV0
two : CRD
hours : NN2
. : PUN
Then : AV0
they : PNP
beat : VVD
him : PNP
with : PRP
the : AT0
pipes : NN2
once : AV0
again : AV0
, : PUN
but : CJC
when : CJS
they : PNP
realized : VVD
that : CJT
he : PNP
had : VHD
managed : VVN
to : TO0
keep : VVI
his : DPS
secrets : NN2
from : PRP
them : PNP
, : PUN
that : CJT
this : DT0
small : AJ0
Englishman : NN1
was : VBD
not : XX0
for : PRP
talking : VVG
, : PUN
they : PNP
turned : VVD
on : PRP
him : PNP
in : PRP-AVP
their : DPS
fury : NN1
and : CJC
kicked : VVD-VVN
and : CJC
beat : VVD
him : PNP
until : CJS
they : PNP
feared : VVD
they : PNP
had : VHD
killed : VVN
him : PNP
. : PUN
Finally : AV0
Kaas : NP0
ordered : VVD
his : DPS
torturers : NN2
to : TO0
stop : VVI
and : CJC
they : PNP
dragged : VVD
Adam : NP0
down : AVP
to : PRP
the : AT0
wooden : AJ0
chalet : NN1
and : CJC
threw : VVD
him : PNP
in : AVP
with : PRP
Billie : NP0
. : PUN
Maybe : AV0
that : DT0-CJT
would : VM0
soften : VVI
the : AT0
Englishman : NN1
up : AVP
, : PUN
or : CJC
give : VVB
Kaas : NN2
the : AT0
opportunity : NN1
to : TO0
break : VVI
the : AT0
woman : NN1
. : PUN
It : PNP
had : VHD
been : VBN
Frick : NP0
's : POS
order : NN1
that : CJT
the : AT0
girl : NN1
should : VM0
not : XX0
be : VBI
tortured : VVN
. : PUN
But : CJC
now : AV0
things : NN2
were : VBD
bound : VVN
to : TO0
change : VVI
, : PUN
once : CJS
he : PNP
found : VVD
out : AVP
that : CJT
the : AT0
Englishman : NN1
had : VHD
n't : XX0
been : VBN
broken : VVN
. : PUN
‘ : PUQ
They : PNP
need : VVB
to : TO0
know : VVI
why : AVQ
we : PNP
are : VBB
here : AV0
, : PUN
’ : PUQ
Adam : NP0
said : VVD
. : PUN
‘ : PUQ
They : PNP
seem : VVB
as : AV0
confused : AJ0
as : CJS
we : PNP
are : VBB
. : PUN
They : PNP
do : VDB
n't : XX0
seem : VVI
to : TO0
have : VHI
any : DT0
idea : NN1
about : PRP
who : PNQ
's : VBZ
behind : PRP
these : DT0
killings : NN2
. : PUN
’ : PUQ
‘ : PUQ
Do : VDB
you : PNP
believe : VVI
them : PNP
? : PUN
’ : PUQ
‘ : PUQ
Got : VVN
to : TO0
. : PUN
Why : AVQ
go : VVI
through : PRP-AVP
all : DT0
this : DT0
if : CJS
they : PNP
already : AV0
have : VHB
the : AT0
answers : NN2
? : PUN
No : ITJ
, : PUN
they : PNP
need : VVB
to : TO0
keep : VVI
us : PNP
alive : AJ0
. : PUN
Until : CJS
they : PNP
get : VVB
their : DPS
answers : NN2
, : PUN
anyway : AV0
. : PUN
’ : PUQ
‘ : PUQ
I : PNP
wo : VM0
n't : XX0
be : VBI
able : AJ0
to : TO0
stand : VVI
up : AVP
to : PRP
them : PNP
like : PRP
you : PNP
, : PUN
Adam : NP0
. : PUN
’ : PUQ
She : PNP
could : VM0
n't : XX0
hide : VVI
the : AT0
fear : NN1
that : CJT
raged : VVD
within : PRP
her : PNP
. : PUN
‘ : PUQ
It : PNP
may : VM0
not : XX0
come : VVI
to : PRP
that : DT0
. : PUN
’ : PUQ
‘ : PUQ
If : CJS
they : PNP
could : VM0
n't : XX0
extract : VVI
anything : PNI
out : AVP
of : PRF
you : PNP
, : PUN
then : AV0
they : PNP
're : VBB
… : PUN
’ : PUQ
‘ : PUQ
Do : VDB
n't : XX0
let : VVI
it : PNP
get : VVI
to : PRP
you : PNP
, : PUN
Billie : NP0
. : PUN
All : DT0
we : PNP
've : VHB
got : VVN
to : TO0
think : VVI
about : PRP
is : VBZ
how : AVQ
to : TO0
get : VVI
out : AVP
of : PRF
here : AV0
. : PUN
’ : PUQ
‘ : PUQ
Adam : NP0
! : PUN
How : AVQ
do : VDB
you : PNP
think : VVI
… : PUN
? : PUN
’ : PUQ
‘ : PUQ
It : PNP
's : VBZ
not : XX0
my : DPS
intention : NN1
to : TO0
stay : VVI
cooped : VVN
up : AVP
in : PRP
here : AV0
, : PUN
waiting : VVG
for : PRP
them : PNP
to : TO0
go : VVI
on : AVP
with : PRP
their : DPS
little : AJ0
games : NN2
. : PUN
’ : PUQ
She : PNP
started : VVD
to : TO0
laugh : VVI
. : PUN
‘ : PUQ
What : DTQ
's : VBZ
so : AV0
funny : AJ0
? : PUN
’ : PUQ
he : PNP
asked : VVD
, : PUN
hoping : VVG
that : CJT
her : DPS
mood : NN1
did : VDD
n't : XX0
suddenly : AV0
break : VVI
into : PRP
hysteria : NN1
. : PUN
But : CJC
she : PNP
continued : VVD
, : PUN
her : DPS
laughter : NN1
growing : VVG-NN1
until : CJS
her : DPS
body : NN1
started : VVD
to : TO0
shake : VVI
with : PRP
the : AT0
force : NN1
of : PRF
it : PNP
. : PUN
He : PNP
did : VDD
n't : XX0
react : VVI
, : PUN
just : AV0
watched : VVD
her : PNP
with : PRP
deep : AJ0
concern : NN1
. : PUN
After : PRP
a : AT0
while : NN1
she : PNP
brought : VVD
herself : PNX
under : PRP
control : NN1
. : PUN
‘ : PUQ
You : PNP
're : VBB
priceless : AJ0
, : PUN
’ : PUQ
she : PNP
said : VVD
. : PUN
‘ : PUQ
Why : AVQ
? : PUN
’ : PUQ
‘ : PUQ
Because : CJS
you : PNP
're : VBB
sitting : VVG
there : AV0
, : PUN
all : DT0
beat : VVB
up : AVP
, : PUN
in : PRP
a : AT0
real : AJ0
mess : NN1
, : PUN
ca : VM0
n't : XX0
even : AV0
stand : VVI
up : AVP
, : PUN
let : VVB
alone : AJ0
walk : NN1-VVB
, : PUN
and : CJC
all : DT0
you : PNP
can : VM0
talk : VVI
about : PRP
is : VBZ
getting : VVG
out : AVP
of : PRF
here : AV0
. : PUN
You : PNP
're : VBB
some : DT0
tough : AJ0
guy : NN1
, : PUN
my : DPS
love : NN1
. : PUN
’ : PUQ
‘ : PUQ
We : PNP
'll : VM0
be : VBI
out : AVP
of : PRF
here : AV0
. : PUN
’ : PUQ
There : EX0
was : VBD
a : AT0
certainty : NN1
in : PRP
his : DPS
tone : NN1
that : CJT
surprised : VVD
her : PNP
. : PUN
She : PNP
felt : VVD
his : DPS
strength : NN1
reach : VVI
out : AVP
to : PRP
her : PNP
. : PUN
Damn : VVB
it : PNP
, : PUN
if : CJS
he : PNP
believed : VVD
it : PNP
, : PUN
then : AV0
why : AVQ
should : VM0
n't : XX0
she : PNP
? : PUN
He : PNP
moved : VVD
towards : PRP
her : PNP
and : CJC
cupped : VVD-VVN
her : DPS
face : NN1-VVB
in : PRP
his : DPS
hands : NN2
. : PUN
Then : AV0
he : PNP
kissed : VVD
her : PNP
softly : AV0
; : PUN
they : PNP
took : VVD
the : AT0
warmth : NN1
of : PRF
living : VVG-NN1
from : PRP
each : DT0
other : NN1
. : PUN
‘ : PUQ
They : PNP
singed : VVD
your : DPS
hair : NN1
, : PUN
’ : PUQ
he : PNP
said : VVD
. : PUN
‘ : PUQ
I : PNP
thought : VVD
you : PNP
'd : VM0
like : VVI
it : PNP
short : AJ0-AV0
. : PUN
’ : PUQ
‘ : PUQ
Are : VBB
you : PNP
sure : AJ0
they : PNP
did : VDD
n't : XX0
do : VDI
anything : PNI
? : PUN
’ : PUQ
‘ : PUQ
No : ITJ
. : PUN
They : PNP
never : AV0
touched : VVD
me : PNP
. : PUN
’ : PUQ
‘ : PUQ
So : AV0
, : PUN
why : AVQ
's : VBZ
your : DPS
lip : NN1
cut : NN1-VVB
? : PUN
’ : PUQ
‘ : PUQ
Because : CJS
I : PNP
shouted : VVD
at : PRP
them : PNP
. : PUN
One : CRD
of : PRF
them : PNP
slugged : VVD
me : PNP
to : TO0
shut : VVI
me : PNP
up : AVP
. : PUN
’ : PUQ
‘ : PUQ
Big : AJ0
mouth : NN1
. : PUN
’ : PUQ
‘ : PUQ
Always : AV0
was : VBD
my : DPS
problem : NN1
. : PUN
’ : PUQ
He : PNP
held : VVD
her : PNP
for : PRP
a : AT0
while : NN1
and : CJC
they : PNP
said : VVD
nothing : PNI
. : PUN
Time : NN1
was : VBD
short : AJ0
and : CJC
they : PNP
needed : VVD
each : DT0
other : NN1
's : POS
strength : NN1
. : PUN
‘ : PUQ
Was : VBD
Marcus : NP0
with : PRP
you : PNP
? : PUN
’ : PUQ
she : PNP
asked : VVD
suddenly : AV0
. : PUN
‘ : PUQ
You : PNP
both : DT0
were : VBD
. : PUN
’ : PUQ
He : PNP
did : VDD
n't : XX0
tell : VVI
her : PNP
how : AVQ
difficult : AJ0
it : PNP
had : VHD
been : VBN
to : TO0
withstand : VVI
the : AT0
pain : NN1
they : PNP
inflicted : VVD
on : PRP
him : PNP
. : PUN
He : PNP
did : VDD
n't : XX0
tell : VVI
her : PNP
that : CJT
he : PNP
had : VHD
been : VBN
so : AV0
worried : AJ0
about : PRP
her : PNP
that : CJT
it : PNP
had : VHD
been : VBN
hard : AJ0
to : TO0
concentrate : VVI
on : PRP-AVP
sharing : VVG
the : AT0
hurt : NN1
with : PRP
Marcus : NP0
, : PUN
on : PRP
blocking : VVG
out : AVP
the : AT0
punishment–hey : NN1
put : VVD
him : PNP
through : AVP
. : PUN
Half : DT0
an : AT0
hour : NN1
later : AV0
the : AT0
door : NN1
clanged : VVD
open : AJ0
and : CJC
Kaas : NP0
entered : VVD
. : PUN
He : PNP
laughed : VVD
when : CJS
he : PNP
saw : VVD
them : PNP
huddled : VVD-VVN
together : AV0
. : PUN
But : CJC
he : PNP
was : VBD
angry : AJ0
, : PUN
having : VHG
just : AV0
been : VBN
hauled : VVN
over : PRP-AVP
the : AT0
coals : NN2
by : PRP
Kragan : NP0
and : CJC
Frick : NP0
for : PRP
not : XX0
getting : VVG
the : AT0
Englishman : NN1
to : TO0
talk : VVI
. : PUN
He : PNP
'd : VHD
asked : VVN
if : CJS
he : PNP
could : VM0
work : VVI
on : PRP
the : AT0
girl : NN1
, : PUN
but : CJC
Frick : NP0
had : VHD
refused : VVN
. : PUN
If : CJS
that : DT0
ever : AV0
got : VVD
out : AVP
, : PUN
he : PNP
'd : VM0
have : VHI
to : TO0
worry : VVI
about : PRP-AVP
his : DPS
public : AJ0-NN1
image : NN1
. : PUN
Kaas : NN2
had : VHD
said : VVN
nothing : PNI
, : PUN
had : VHD
just : AV0
wondered : VVN
what : DTQ
they : PNP
would : VM0
say : VVI
about : PRP
his : DPS
public : AJ0-NN1
image : NN1
if : CJS
they : PNP
ever : AV0
discovered : VVD
the : AT0
extent : NN1
of : PRF
the : AT0
terrorist : NN1
acts : VVZ
he : PNP
had : VHD
unleashed : VVN
in : PRP
the : AT0
last : ORD
few : DT0
months : NN2
. : PUN
The : AT0
trouble : NN1
with : PRP
all : DT0
these : DT0
guys : NN2
is : VBZ
that : CJT
they : PNP
had : VHD
become : VVN
too : AV0
aware : AJ0
of : PRF
their : DPS
public : AJ0-NN1
image : NN1
after : PRP-CJS
Saddam : NP0
Hussein : NP0
's : POS
little : AJ0-AV0
escapade : NN1-VVB
into : PRP
Kuwait : NP0
and : CJC
the : AT0
atrocious : AJ0
acts : VVZ-NN2
his : DPS
troops : NN2
had : VHD
performed : VVN
. : PUN
That : DT0
was : VBD
the : AT0
difference : NN1
between : PRP
Kragan : NP0
and : CJC
Frick : NP0-NN1
. : PUN
Kragan : NN1-NP0
would : VM0
simply : AV0
have : VHI
done : VDN
what : DTQ
was : VBD
necessary : AJ0
. : PUN
He : PNP
would : VM0
have : VHI
found : VVN
out : AVP
what : DTQ
these : DT0
two : CRD
were : VBD
up : AVP
to : PRP
by : PRP
now : AV0
. : PUN
‘ : PUQ
Pretty : AJ0
little : AJ0
lovebirds : NN2
. : PUN
’ : PUQ
Kaas : NN2
signalled : VVD
two : CRD
of : PRF
the : AT0
Sturmabteilungen : NN1
into : PRP
the : AT0
room : NN1
. : PUN
They : PNP
moved : VVD
past : PRP
Kaas : NP0
and : CJC
grabbed : VVD
Adam : NP0
, : PUN
wrenching : VVG
him : PNP
away : AV0
from : PRP
Billie : NP0
. : PUN
She : PNP
screamed : VVD
, : PUN
but : CJC
it : PNP
had : VHD
little : DT0
effect : NN1
, : PUN
just : AV0
added : VVN
to : PRP
the : AT0
confusion : NN1
that : CJT
reigned : VVD
in : PRP
the : AT0
room : NN1
. : PUN
Adam : NP0
struggled : VVD
, : PUN
but : CJC
he : PNP
was : VBD
too : AV0
weak : AJ0
and : CJC
the : AT0
storm-troopers : NN2
tore : VVD
his : DPS
trousers : NN2
off : AVP
, : PUN
leaving : VVG
him : PNP
stark : AV0
naked : AJ0
. : PUN
Then : AV0
they : PNP
held : VVD
him : PNP
down : AVP
, : PUN
flat : NN1-AJ0
on : PRP
his : DPS
back : NN1
, : PUN
as : CJS
another : DT0
Sturmabteilung : NP0
poured : VVD
a : AT0
bucket : NN1
of : PRF
salt : NN1
over : PRP
the : AT0
Englishman : NN1
. : PUN
It : PNP
stuck : VVD
to : PRP
Adam : NP0
's : POS
body : NN1
, : PUN
burnt : VVN
into : PRP
the : AT0
jigsaw : NN1
of : PRF
cuts : NN2
that : CJT
had : VHD
been : VBN
carved : VVN
into : PRP
his : DPS
skin : NN1
. : PUN
Adam : NP0
screamed : VVD
, : PUN
loud : AJ0-AV0
and : CJC
violent : AJ0
, : PUN
in : PRP
his : DPS
attempt : NN1
to : TO0
absorb : VVI
the : AT0
pain : NN1
. : PUN
The : AT0
two : CRD
storm-troopers : NN2
who : PNQ
pinned : VVD
him : PNP
down : AVP
now : AV0
rubbed : VVD
the : AT0
salt : NN1
all : AV0
over : PRP
his : DPS
body : NN1
, : PUN
massaging : VVG
it : PNP
into : PRP
his : DPS
skin : NN1
, : PUN
tearing : VVG
the : AT0
cuts : NN2
wider : AJC
as : CJS
they : PNP
did : VDD
so : AV0
. : PUN
Billie : NP0-NN1
hurled : VVD
herself : PNX
at : PRP
them : PNP
, : PUN
tried : VVD
to : TO0
push : VVI
them : PNP
away : AV0
from : PRP
Adam : NP0
, : PUN
but : CJC
the : AT0
storm-trooper : NN1
with : PRP
the : AT0
bucket : NN1
hit : VVD
her : PNP
across : PRP
the : AT0
head : NN1
with : PRP
it : PNP
, : PUN
sent : VVD
her : PNP
sprawling : VVG-AJ0
backwards : AV0
across : PRP
the : AT0
room : NN1
. : PUN
He : PNP
then : AV0
knelt : VVD
down : AVP
, : PUN
took : VVD
out : AVP
his : DPS
small : AJ0
, : PUN
sharp : AJ0
penknife : NN1
and : CJC
cut : VVN
into : PRP
the : AT0
fleshy : AJ0
area : NN1
between : PRP
Adam : NP0
's : POS
toes : NN2
. : PUN
He : PNP
picked : VVD
up : AVP
what : DTQ
salt : NN1
was : VBD
left : VVN
in : PRP
the : AT0
bucket : NN1
and : CJC
rubbed : VVD
it : PNP
between : PRP
them : PNP
. : PUN
Then : AV0
the : AT0
guards : NN2
were : VBD
gone : VVN
. : PUN
Billie : NP0-NN1
crawled : VVD
over : AVP
to : PRP
Adam : NP0
, : PUN
who : PNQ
was : VBD
still : AV0
yelling : VVG
loudly : AV0
, : PUN
and : CJC
knelt : VVD
next : ORD
to : PRP
him : PNP
, : PUN
waiting : VVG
for : PRP
him : PNP
to : TO0
bring : VVI
himself : PNX
under : PRP
control : NN1
. : PUN
It : PNP
was : VBD
five : CRD
minutes : NN2
before : CJS
he : PNP
stopped : VVD
yelling : VVG
, : PUN
before : CJS
he : PNP
started : VVD
to : TO0
absorb : VVI
the : AT0
terrible : AJ0
pain : NN1
that : CJT-DT0
burnt : VVD-VVN
through : PRP-AVP
his : DPS
flesh : NN1
. : PUN
Then : AV0
she : PNP
started : VVD
to : TO0
lick : VVI
him : PNP
again : AV0
, : PUN
slowly : AV0
and : CJC
deliberately : AV0
, : PUN
trying : VVG
to : TO0
absorb : VVI
the : AT0
salt : NN1
from : PRP
his : DPS
wounds : NN2
. : PUN
She : PNP
stemmed : VVD
the : AT0
flow : NN1
of : PRF
tears : NN2
that : CJT
came : VVD
, : PUN
knowing : VVG
they : PNP
would : VM0
sting : VVI
his : DPS
body : NN1
. : PUN
With : PRP
considerable : AJ0
difficulty : NN1
, : PUN
she : PNP
tore : VVD
a : AT0
piece : NN1
of : PRF
cloth : NN1
from : PRP
her : DPS
blouse : NN1
and : CJC
wetted : VVD
it : PNP
with : PRP
her : DPS
spittle : NN1
. : PUN
Slowly : AV0
she : PNP
worked : VVD
on : PRP
Adam : NP0
's : POS
body : NN1
. : PUN
It : PNP
would : VM0
be : VBI
a : AT0
long : AJ0
task : NN1
. : PUN
